*Heading
** Job name: multiunit_60_bistable_18-02 Model name: fv_60-bistable
** Generated by: Abaqus/CAE 6.14-4
*Preprint, echo=NO, model=NO, history=NO, contact=NO
**
** PARTS
**
*Part, name=e60
*Node
      1,  -6.07870007,  -9.72860146,           0.
      2,  -5.61681938,  -10.5285997,           0.
      3,  -4.73228884,  -8.99655056,           0.
      4,  -5.42510891,  -8.59654999,           0.
      5,  -5.61681938,   52.6430016,           0.
      6,  -6.07870007,   51.8430023,           0.
      7,  -5.42510891,   50.7109489,           0.
      8,  -4.73228884,   51.1109505,           0.
      9,   12.1574001,   21.8571987,           0.
     10,   12.6192808,   21.0571995,           0.
     11,   13.5038109,   22.5892506,           0.
     12,   12.8109913,   22.9892502,           0.
     13, -0.461880416,           0.,           0.
     14,           0.,  -1.44099133e-09,           0.
     15,           0.,  0.799998999,           0.
     16, -0.653591216,   1.93205035,           0.
     17,  -1.34641123,   1.53204989,           0.
     18,  0.461880416,           0.,           0.
     19,   1.34641123,   1.53204989,           0.
     20,  0.653591216,   1.93205035,           0.
** ... 16853 like lines cut
*Element, type=S4R
 1,    1,  278, 3972,  287
 2,  278,  279, 3973, 3972
 3,  279,  280, 3974, 3973
 4,  280,    2,  281, 3974
 5,  287, 3972, 3975,  286
 6, 3972, 3973, 3976, 3975
 7, 3973, 3974, 3977, 3976
 8, 3974,  281,  282, 3977
 9,  286, 3975,  285,    4
10, 3975, 3976,  284,  285
11, 3976, 3977,  283,  284
12, 3977,  282,    3,  283
13,    5,  288, 3978,  299
14,  288,  289, 3979, 3978
15,  289,  290, 3980, 3979
16,  290,    6,  291, 3980
17,  299, 3978, 3981,  298
18, 3978, 3979, 3982, 3981
19, 3979, 3980, 3983, 3982
20, 3980,  291,  292, 3983
** ... 15592 like lines cut
*Element, type=S3
1393, 1086,  153,  747
1398,  612,  107, 1087
1403, 1088,   92,  871
1408,  562,   92, 1088
1413, 1089,    9,  412
1418, 1059,  242, 1122
1419, 4846, 1120, 1121
1420, 4961, 4958, 4957
1421, 4956, 4964, 4965
1614, 5000, 4999, 1177
1615, 1180,  199, 1047
1616, 5130, 1047, 1046
1617, 5136, 5075, 5058
1818,  907,  199, 1180
1819, 5176, 1230, 1231
1820, 5305, 5306, 5276
1821, 5296, 5292, 5290
2017, 5335, 5334, 1264
2018, 1267,  150,  895
2019, 5465,  895,  894
** ... 328 like lines cut
*Nset, nset=Set-1
     1,     2,     3,     4,     5,     6,     7,     8,     9,    10,    11,    12,    13,    15,    16,    17
    18,    19,    20,    21,    23,    24,    25,    26,    27,    28,    29,    31,    32,    33,    34,    35
    36,    37,    39,    40,    41,    42,    43,    44,    45,    46,    47,    48,    50,    51,    52,    53
    54,    55,    56,    58,    59,    60,    61,    62,    63,    64,    66,    67,    68,    69,    70,    71
    72,    74,    75,    76,    77,    78,    79,    80,    81,    82,    83,    84,    85,    86,    87,    88
    89,    90,    91,    92,    93,    94,    95,    96,    97,    98,    99,   100,   101,   102,   103,   104
   105,   106,   107,   108,   109,   110,   111,   112,   113,   115,   116,   117,   118,   119,   121,   122
   123,   124,   125,   126,   128,   129,   130,   131,   132,   133,   134,   135,   136,   137,   139,   140
   141,   142,   143,   144,   146,   147,   148,   149,   150,   151,   152,   153,   154,   155,   156,   157
   158,   159,   160,   161,   163,   164,   165,   166,   167,   168,   170,   171,   172,   173,   174,   175
   176,   177,   178,   179,   181,   182,   183,   184,   185,   186,   187,   188,   189,   190,   191,   192
   193,   194,   196,   197,   198,   199,   200,   201,   202,   203,   204,   205,   206,   207,   208,   209
   211,   212,   213,   214,   215,   216,   217,   218,   219,   220,   221,   222,   224,   225,   226,   227
   228,   229,   230,   231,   232,   233,   234,   235,   236,   237,   239,   240,   241,   242,   243,   244
   245,   246,   247,   248,   252,   253,   254,   255,   256,   257,   258,   259,   260,   261,   262,   263
   264,   265,   266,   267,   268,   269,   270,   271,   272,   273,   274,   275,   281,   282,   286,   287
   291,   292,   293,   297,   298,   299,   303,   304,   308,   309,   314,   315,   319,   320,   321,   322
   326,   327,   328,   329,   333,   334,   339,   340,   344,   345,   346,   347,   351,   352,   353,   354
   358,   359,   364,   365,   369,   370,   371,   372,   376,   377,   378,   379,   383,   384,   389,   390
   394,   395,   396,   397,   401,   402,   403,   404,   408,   409,   413,   414,   415,   419,   420,   421
** ... 956 like lines cut
*Elset, elset=Set-1
  1418,  1419,  1420,  1421,  1422,  1423,  1424,  1425,  1426,  1427,  1428,  1429,  1430,  1431,  1432,  1433
  1434,  1435,  1436,  1437,  1438,  1439,  1440,  1441,  1442,  1443,  1444,  1445,  1446,  1447,  1448,  1449
  1450,  1451,  1452,  1453,  1454,  1455,  1456,  1457,  1458,  1459,  1460,  1461,  1462,  1463,  1464,  1465
  1466,  1467,  1468,  1469,  1470,  1471,  1472,  1473,  1474,  1475,  1476,  1477,  1478,  1479,  1480,  1481
  1482,  1483,  1484,  1485,  1486,  1487,  1488,  1489,  1490,  1491,  1492,  1493,  1494,  1495,  1496,  1497
  1498,  1499,  1500,  1501,  1502,  1503,  1504,  1505,  1506,  1507,  1508,  1509,  1510,  1511,  1512,  1513
  1514,  1515,  1516,  1517,  1518,  1519,  1520,  1521,  1522,  1523,  1524,  1525,  1526,  1527,  1528,  1529
  1530,  1531,  1532,  1533,  1534,  1535,  1536,  1537,  1538,  1539,  1540,  1541,  1542,  1543,  1544,  1545
  1546,  1547,  1548,  1549,  1550,  1551,  1552,  1553,  1554,  1555,  1556,  1557,  1558,  1559,  1560,  1561
  1562,  1563,  1564,  1565,  1566,  1567,  1568,  1569,  1570,  1571,  1572,  1573,  1574,  1575,  1576,  1577
  1578,  1579,  1580,  1581,  1582,  1583,  1584,  1585,  1586,  1587,  1588,  1589,  1590,  1591,  1592,  1593
  1594,  1595,  1596,  1597,  1598,  1599,  1600,  1601,  1602,  1603,  1604,  1605,  1606,  1607,  1608,  1609
  1610,  1611,  1612,  1613,  1614,  1615,  1616,  1617,  1618,  1619,  1620,  1621,  1622,  1623,  1624,  1625
  1626,  1627,  1628,  1629,  1630,  1631,  1632,  1633,  1634,  1635,  1636,  1637,  1638,  1639,  1640,  1641
  1642,  1643,  1644,  1645,  1646,  1647,  1648,  1649,  1650,  1651,  1652,  1653,  1654,  1655,  1656,  1657
  1658,  1659,  1660,  1661,  1662,  1663,  1664,  1665,  1666,  1667,  1668,  1669,  1670,  1671,  1672,  1673
  1674,  1675,  1676,  1677,  1678,  1679,  1680,  1681,  1682,  1683,  1684,  1685,  1686,  1687,  1688,  1689
  1690,  1691,  1692,  1693,  1694,  1695,  1696,  1697,  1698,  1699,  1700,  1701,  1702,  1703,  1704,  1705
  1706,  1707,  1708,  1709,  1710,  1711,  1712,  1713,  1714,  1715,  1716,  1717,  1718,  1719,  1720,  1721
  1722,  1723,  1724,  1725,  1726,  1727,  1728,  1729,  1730,  1731,  1732,  1733,  1734,  1735,  1736,  1737
** ... 888 like lines cut
*Nset, nset=Set-2
     1,     2,     3,     4,     5,     6,     7,     8,     9,    10,    11,    12,    13,    14,    15,    16
    17,    18,    19,    20,    21,    22,    23,    24,    25,    26,    27,    28,    29,    30,    31,    32
    33,    34,    35,    36,    37,    38,    39,    40,    41,    42,    43,    44,    45,    46,    47,    48
    49,    50,    51,    52,    53,    54,    55,    56,    57,    58,    59,    60,    61,    62,    63,    64
    65,    66,    67,    68,    69,    70,    71,    72,    73,    74,    75,    76,    77,    78,    79,    80
    81,    82,    83,    84,    85,    86,    87,    88,    89,    90,    91,    92,    93,    94,    95,    96
    97,    98,    99,   100,   101,   102,   103,   104,   105,   106,   107,   108,   109,   110,   111,   112
   113,   114,   115,   116,   117,   118,   119,   120,   121,   122,   123,   124,   125,   126,   127,   128
   129,   130,   131,   132,   133,   134,   135,   136,   137,   138,   139,   140,   141,   142,   143,   144
   145,   146,   147,   148,   149,   150,   151,   152,   153,   154,   155,   156,   157,   158,   159,   160
   161,   162,   163,   164,   165,   166,   167,   168,   169,   170,   171,   172,   173,   174,   175,   176
   177,   178,   179,   180,   181,   182,   183,   184,   185,   186,   187,   188,   189,   190,   191,   192
   193,   194,   195,   196,   197,   198,   199,   200,   201,   202,   203,   204,   205,   206,   207,   208
   209,   210,   211,   212,   213,   214,   215,   216,   217,   218,   219,   220,   221,   222,   223,   224
   225,   226,   227,   228,   229,   230,   231,   232,   233,   234,   235,   236,   237,   238,   239,   240
   241,   242,   243,   244,   245,   246,   247,   248,   249,   250,   251,   276,   277,   278,   279,   280
   281,   282,   283,   284,   285,   286,   287,   288,   289,   290,   291,   292,   293,   294,   295,   296
   297,   298,   299,   300,   301,   302,   303,   304,   305,   306,   307,   308,   309,   310,   311,   312
   313,   314,   315,   316,   317,   318,   319,   320,   321,   322,   323,   324,   325,   326,   327,   328
   329,   330,   331,   332,   333,   334,   335,   336,   337,   338,   339,   340,   341,   342,   343,   344
** ... 100 like lines cut
*Elset, elset=Set-2
     1,     2,     3,     4,     5,     6,     7,     8,     9,    10,    11,    12,    13,    14,    15,    16
    17,    18,    19,    20,    21,    22,    23,    24,    25,    26,    27,    28,    29,    30,    31,    32
    33,    34,    35,    36,    37,    38,    39,    40,    41,    42,    43,    44,    45,    46,    47,    48
    49,    50,    51,    52,    53,    54,    55,    56,    57,    58,    59,    60,    61,    62,    63,    64
    65,    66,    67,    68,    69,    70,    71,    72,    73,    74,    75,    76,    77,    78,    79,    80
    81,    82,    83,    84,    85,    86,    87,    88,    89,    90,    91,    92,    93,    94,    95,    96
    97,    98,    99,   100,   101,   102,   103,   104,   105,   106,   107,   108,   109,   110,   111,   112
   113,   114,   115,   116,   117,   118,   119,   120,   121,   122,   123,   124,   125,   126,   127,   128
   129,   130,   131,   132,   133,   134,   135,   136,   137,   138,   139,   140,   141,   142,   143,   144
   145,   146,   147,   148,   149,   150,   151,   152,   153,   154,   155,   156,   157,   158,   159,   160
   161,   162,   163,   164,   165,   166,   167,   168,   169,   170,   171,   172,   173,   174,   175,   176
   177,   178,   179,   180,   181,   182,   183,   184,   185,   186,   187,   188,   189,   190,   191,   192
   193,   194,   195,   196,   197,   198,   199,   200,   201,   202,   203,   204,   205,   206,   207,   208
   209,   210,   211,   212,   213,   214,   215,   216,   217,   218,   219,   220,   221,   222,   223,   224
   225,   226,   227,   228,   229,   230,   231,   232,   233,   234,   235,   236,   237,   238,   239,   240
   241,   242,   243,   244,   245,   246,   247,   248,   249,   250,   251,   252,   253,   254,   255,   256
   257,   258,   259,   260,   261,   262,   263,   264,   265,   266,   267,   268,   269,   270,   271,   272
   273,   274,   275,   276,   277,   278,   279,   280,   281,   282,   283,   284,   285,   286,   287,   288
   289,   290,   291,   292,   293,   294,   295,   296,   297,   298,   299,   300,   301,   302,   303,   304
   305,   306,   307,   308,   309,   310,   311,   312,   313,   314,   315,   316,   317,   318,   319,   320
** ... 70 like lines cut
** Section: Section-2
*Shell Section, elset=Set-2, material=PLA
0.4, 5
** Section: Section-1
*Shell Section, elset=Set-1, composite
1.8, 3, PLA, 0., P1
0.2, 3, PLA, 90., P2
*End Part
**  
*Part, name=harrmer2
*Node
      1,           2.,           0.,           0.
      2,           2.,          10.,           0.
      3,           0.,          -2.,           0.
      4,   1.95905983,           0.,   0.40259704
      5,   1.83791566,           0.,  0.788711727
      6,   1.64152694,           0.,    1.1425364
      7,   1.37793386,           0.,   1.44958556
      8,   1.05792797,           0.,   1.69728851
      9,  0.694610476,           0.,   1.87550426
     10,  0.302855551,           0.,    1.9769367
     11,  -0.10129834,           0.,   1.99743307
     12, -0.501305044,           0.,   1.93615425
     13, -0.880788326,           0.,   1.79560912
     14,  -1.22421193,           0.,   1.58155143
     15,  -1.51751626,           0.,   1.30274498
     16,  -1.74869323,           0.,  0.970603943
     17,  -1.90827847,           0.,  0.598726273
     18,   -1.9897387,           0.,  0.202336639
     19,   -1.9897387,           0., -0.202336639
     20,  -1.90827847,           0., -0.598726273
** ... 952 like lines cut
*Element, type=R3D4
  1,   1,  33,  95,  34
  2,  33,  32,  96,  95
  3,  32,  31,  97,  96
  4,  31,  30,  98,  97
  5,  30,  29,  99,  98
  6,  29,  28, 100,  99
  7,  28,  27, 101, 100
  8,  27,  26, 102, 101
  9,  26,  25, 103, 102
 10,  25,  24, 104, 103
 11,  24,  23, 105, 104
 12,  23,  22, 106, 105
 13,  22,  21, 107, 106
 14,  21,  20, 108, 107
 15,  20,  19, 109, 108
 16,  19,  18, 110, 109
 17,  18,  17, 111, 110
 18,  17,  16, 112, 111
 19,  16,  15, 113, 112
 20,  15,  14, 114, 113
** ... 933 like lines cut
*Element, type=R3D3
776, 895, 894, 914
777, 827, 825, 824
778, 840, 855, 841
779, 892, 904, 893
780, 958, 968, 926
*Node
    973,  -7.47282112e-15,          -2.,           0.
*Nset, nset=harrmer2-RefPt_, internal
973, 
*Elset, elset=harrmer2, generate
   1,  958,    1
*End Part
**  
**
** ASSEMBLY
**
*Assembly, name=Assembly
**  
*Instance, name=e60-1, part=e60
*End Instance
**  
*Instance, name=harrmer2-1, part=harrmer2
     12.1574,      21.0572,          -2.
     12.1574,      21.0572,          -2.,      11.1574,      21.0572,          -2.,          90.
*End Instance
**  
*Nset, nset=Set-83, instance=e60-1
 277,
*Nset, nset=Set-84, instance=e60-1
 249,
*Nset, nset=Set-85, instance=e60-1
 276,
*Nset, nset=Set-86, instance=e60-1
 250,
*Nset, nset=Set-87, instance=e60-1
     1,     2,     3,     4,     5,     6,     7,     8,     9,    10,    11,    12,    13,    14,    15,    16
    17,    18,    19,    20,    21,    22,    23,    24,    25,    26,    27,    28,    29,    30,    31,    32
    33,    34,    35,    36,    37,    38,    39,    40,    41,    42,    43,    44,    45,    46,    47,    48
    49,    50,    51,    52,    53,    54,    55,    56,    57,    58,    59,    60,    61,    62,    63,    64
    65,    66,    67,    68,    69,    70,    71,    72,    73,    74,    75,    76,    77,    78,    79,    80
    81,    82,    83,    84,    85,    86,    87,    88,    89,    90,    91,    92,    93,    94,    95,    96
    97,    98,    99,   100,   101,   102,   103,   104,   105,   106,   107,   108,   109,   110,   111,   112
   113,   114,   115,   116,   117,   118,   119,   120,   121,   122,   123,   124,   125,   126,   127,   128
   129,   130,   131,   132,   133,   134,   135,   136,   137,   138,   139,   140,   141,   142,   143,   144
   145,   146,   147,   148,   149,   150,   151,   152,   153,   154,   155,   156,   157,   158,   159,   160
   161,   162,   163,   164,   165,   166,   167,   168,   169,   170,   171,   172,   173,   174,   175,   176
   177,   178,   179,   180,   181,   182,   183,   184,   185,   186,   187,   188,   189,   190,   191,   192
   193,   194,   195,   196,   197,   198,   199,   200,   201,   202,   203,   204,   205,   206,   207,   208
   209,   210,   211,   212,   213,   214,   215,   216,   217,   218,   219,   220,   221,   222,   223,   224
   225,   226,   227,   228,   229,   230,   231,   232,   233,   234,   235,   236,   237,   238,   239,   240
   241,   242,   243,   244,   245,   246,   247,   248,   249,   250,   251,   252,   253,   254,   255,   256
   257,   258,   259,   260,   261,   262,   263,   264,   265,   266,   267,   268,   269,   270,   271,   272
   273,   274,   275,   276,   277,   278,   279,   280,   281,   282,   283,   284,   285,   286,   287,   288
   289,   290,   291,   292,   293,   294,   295,   296,   297,   298,   299,   303,   304,   305,   306,   307
   308,   309,   310,   311,   312,   313,   314,   315,   316,   317,   318,   319,   320,   321,   322,   323
** ... 1032 like lines cut
*Elset, elset=Set-87, instance=e60-1
     1,     2,     3,     4,     5,     6,     7,     8,     9,    10,    11,    12,    13,    14,    15,    16
    17,    18,    19,    20,    21,    22,    23,    24,    25,    26,    27,    28,    29,    32,    33,    36
    37,    38,    39,    40,    41,    42,    43,    44,    45,    46,    47,    48,    49,    50,    51,    52
    53,    54,    55,    56,    57,    58,    59,    60,    61,    62,    63,    64,    65,    66,    67,    68
    69,    70,    71,    72,    73,    74,    75,    76,    77,    78,    79,    80,    81,    82,    83,    84
    85,    86,    87,    88,    89,    90,    91,    92,    93,    94,    95,    96,    97,    98,    99,   100
   101,   102,   103,   104,   105,   106,   107,   108,   109,   110,   111,   112,   113,   114,   115,   116
   117,   118,   119,   120,   121,   122,   123,   124,   125,   126,   127,   128,   129,   130,   131,   132
   133,   134,   135,   136,   137,   138,   139,   140,   141,   142,   143,   144,   145,   146,   147,   148
   149,   150,   151,   152,   153,   154,   155,   156,   157,   158,   159,   160,   161,   162,   163,   164
   165,   166,   167,   168,   169,   170,   171,   172,   173,   174,   175,   176,   177,   178,   179,   180
   181,   182,   183,   184,   185,   186,   187,   188,   189,   190,   191,   192,   193,   194,   195,   196
   197,   198,   199,   200,   201,   204,   205,   208,   209,   212,   213,   214,   215,   216,   217,   218
   219,   220,   221,   222,   223,   224,   225,   226,   227,   228,   229,   230,   231,   232,   233,   234
   235,   236,   237,   238,   239,   240,   241,   242,   243,   244,   245,   246,   247,   248,   249,   250
   251,   252,   253,   254,   255,   256,   257,   258,   259,   260,   261,   262,   263,   264,   265,   266
   267,   268,   269,   270,   271,   272,   273,   274,   275,   276,   277,   278,   279,   280,   281,   282
   283,   284,   285,   286,   287,   288,   289,   290,   291,   292,   293,   294,   295,   296,   297,   298
   299,   300,   301,   302,   303,   304,   305,   306,   307,   308,   309,   310,   311,   312,   313,   314
   315,   316,   317,   318,   319,   320,   321,   322,   323,   324,   325,   326,   327,   328,   329,   330
** ... 976 like lines cut
*Nset, nset=Set-91, instance=e60-1, generate
     1,  16873,      1
*Elset, elset=Set-91, instance=e60-1, generate
     1,  15960,      1
*Nset, nset=Set-93, instance=harrmer2-1
 973,
*Nset, nset=load, instance=harrmer2-1
 973,
*Nset, nset=m_Set-92, instance=harrmer2-1
 973,
*Elset, elset=_Surf-1_SPOS, internal, instance=e60-1
     1,     2,     3,     4,     5,     6,     7,     8,     9,    10,    11,    12,    13,    14,    15,    16
    17,    18,    19,    20,    21,    22,    23,    24,    25,    26,    27,    28,    41,    42,    43,    44
    45,    46,    47,    48,    49,    50,    51,    52,    53,    54,    55,    56,    57,    58,    59,    60
    61,    62,    63,    64,    65,    66,    67,    68,    69,    70,    71,    72,    73,    74,    75,    76
    77,    78,    79,    80,    81,    82,    83,    84,    85,    86,    87,    88,    89,    90,    91,    92
    93,    94,    95,    96,    97,    98,    99,   100,   101,   102,   103,   104,   105,   106,   107,   108
   109,   110,   111,   112,   113,   114,   115,   116,   117,   118,   119,   120,   121,   122,   123,   124
   125,   126,   127,   128,   129,   130,   131,   132,   133,   134,   135,   136,   137,   138,   139,   140
   141,   142,   143,   144,   145,   146,   147,   148,   149,   150,   151,   152,   153,   154,   155,   156
   157,   158,   159,   160,   161,   162,   163,   164,   165,   166,   167,   168,   169,   170,   171,   172
   173,   174,   175,   176,   177,   178,   179,   180,   181,   182,   183,   184,   185,   186,   187,   188
   189,   190,   191,   192,   193,   194,   195,   196,   197,   198,   199,   200,   217,   218,   219,   220
   221,   222,   223,   224,   225,   226,   227,   228,   229,   230,   231,   232,   233,   234,   235,   236
   237,   238,   239,   240,   241,   242,   243,   244,   245,   246,   247,   248,   249,   250,   251,   252
   253,   254,   255,   256,   257,   258,   259,   260,   261,   262,   263,   264,   265,   266,   267,   268
   269,   270,   271,   272,   273,   274,   275,   276,   277,   278,   279,   280,   281,   282,   283,   284
   285,   286,   287,   288,   289,   290,   291,   292,   293,   294,   295,   296,   297,   298,   299,   300
   301,   302,   303,   304,   305,   306,   307,   308,   309,   310,   311,   312,   313,   314,   315,   316
   317,   318,   319,   320,   321,   322,   323,   324,   325,   326,   327,   328,   329,   330,   331,   332
   333,   334,   335,   336,   337,   338,   339,   340,   341,   342,   343,   344,   345,   346,   347,   348
** ... 973 like lines cut
*Surface, type=ELEMENT, name=Surf-1
_Surf-1_SPOS, SPOS
*Elset, elset=_Surf-3_SNEG, internal, instance=e60-1, generate
     1,  15960,      1
*Surface, type=ELEMENT, name=Surf-3
_Surf-3_SNEG, SNEG
*Elset, elset=_s_Surf-2_SPOS, internal, instance=e60-1
 1403, 1404, 1405, 1406, 1407, 1408, 1409, 1410, 1411, 1412, 1413, 1414, 1415, 1416, 1417, 3229
 3230, 3231, 3232, 3233
*Surface, type=ELEMENT, name=s_Surf-2
_s_Surf-2_SPOS, SPOS
*Rigid Body, ref node=harrmer2-1.harrmer2-RefPt_, elset=harrmer2-1.harrmer2
** Constraint: Constraint-8
*Coupling, constraint name=Constraint-8, ref node=m_Set-92, surface=s_Surf-2
*Kinematic
*End Assembly
*Amplitude, name=Amp-1, definition=SMOOTH STEP
             0.,             25.,             0.1,             55.
*Amplitude, name=Amp-2, definition=SMOOTH STEP
             0.,              0.,             0.5,              1.
*Amplitude, name=Amp-3
             0.,             25.,             0.5,             65.
*Amplitude, name=Amp-4
             0.,              0.,             0.1,              1.,             0.3,              0.
*Amplitude, name=Amp-5, definition=SMOOTH STEP
             0.,              0.,             0.5,              1.
** 
** MATERIALS
** 
*Material, name=PLA
*Density
 1.25e-09,
*Elastic, type=LAMINA
 8.26, 6.608,  0.45,  0.79,  0.79,  0.79
*Expansion, type=ORTHO
 -0.00144675, 0.00017025,         0.
** 
** INTERACTION PROPERTIES
** 
*Surface Interaction, name=IntProp-1
*Friction
 0.3,
*Surface Behavior, pressure-overclosure=HARD
** 
** BOUNDARY CONDITIONS
** 
** Name: BC-5 Type: Displacement/Rotation
*Boundary
Set-83, 3, 3
** Name: BC-6 Type: Displacement/Rotation
*Boundary
Set-84, 3, 3
** Name: BC-7 Type: Displacement/Rotation
*Boundary
Set-85, 3, 3
** Name: BC-8 Type: Displacement/Rotation
*Boundary
Set-86, 3, 3
** Name: BC-9 Type: Displacement/Rotation
*Boundary
Set-93, 1, 1
Set-93, 2, 2
Set-93, 4, 4
Set-93, 5, 5
Set-93, 6, 6
** 
** PREDEFINED FIELDS
** 
** Name: Predefined Field-7   Type: Temperature
*Initial Conditions, type=TEMPERATURE
Set-91, 25.
** 
** INTERACTIONS
** 
** Interaction: Int-3
*Contact, op=NEW
*Contact Inclusions, ALL EXTERIOR
*Contact Property Assignment
 ,  , IntProp-1
** ----------------------------------------------------------------
** 
** STEP: Step-3
** 
*Step, name=Step-3, nlgeom=YES
*Dynamic, Explicit
, 0.5
*Bulk Viscosity
0.06, 1.2
** Mass Scaling: Semi-Automatic
**               Whole Model
*Fixed Mass Scaling, dt=1e-06, type=below min
** 
** LOADS
** 
** Name: Load-1   Type: Pressure
*Dsload, amplitude=Amp-4
Surf-3, P, -1e-06
** 
** PREDEFINED FIELDS
** 
** Name: Predefined Field-7   Type: Temperature
*Temperature, amplitude=Amp-3
Set-91, 1.
** 
** OUTPUT REQUESTS
** 
*Restart, write, number interval=1, time marks=NO
** 
** FIELD OUTPUT: F-Output-2
** 
*Output, field, number interval=100
*Node Output
A, AR, AT, U, UR, UT, V, VR
VT
*Element Output, directions=YES
CTSHR, E, EFABRIC, ER, ERV, LE, MISES, MISESMAX, MISESONLY, NE, PE, PEEQ, PEEQMAX, PEEQT, PEEQVAVG, PEMAG
PEQC, PEVAVG, PRESSONLY, PS, S, SE, SFABRIC, SSAVG, SVAVG, TRIAX, TSHR, VE, VEEQ, VS
** 
** HISTORY OUTPUT: H-Output-3
** 
*Output, history, time interval=0.00025
*Energy Output
ALLAE, ALLCD, ALLCW, ALLDC, ALLDMD, ALLFD, ALLIE, ALLKE, ALLMW, ALLPD, ALLPW, ALLSE, ALLVD, ALLWK, ETOTAL
** 
** HISTORY OUTPUT: H-Output-4
** 
*Node Output, nset=load
RF3, U3
*End Step
** ----------------------------------------------------------------
** 
** STEP: Step-4
** 
*Step, name=Step-4, nlgeom=YES
*Dynamic, Explicit
, 0.5
*Bulk Viscosity
0.06, 1.2
** Mass Scaling: Semi-Automatic
**               Whole Model
*Fixed Mass Scaling, dt=1e-06, type=below min
** 
** BOUNDARY CONDITIONS
** 
** Name: BC-9 Type: Displacement/Rotation
*Boundary, amplitude=Amp-5
Set-93, 1, 1
Set-93, 2, 2
Set-93, 3, 3, 40.
Set-93, 4, 4
Set-93, 5, 5
Set-93, 6, 6
** 
** LOADS
** 
** Name: Load-1   Type: Pressure
*Dsload, op=NEW
** 
** OUTPUT REQUESTS
** 
*Restart, write, number interval=1, time marks=NO
** 
** FIELD OUTPUT: F-Output-2
** 
*Output, field, number interval=100
*Node Output
A, AR, AT, U, UR, UT, V, VR
VT
*Element Output, directions=YES
CTSHR, E, EFABRIC, ER, ERV, LE, MISES, MISESMAX, MISESONLY, NE, PE, PEEQ, PEEQMAX, PEEQT, PEEQVAVG, PEMAG
PEQC, PEVAVG, PRESSONLY, PS, S, SE, SFABRIC, SSAVG, SVAVG, TRIAX, TSHR, VE, VEEQ, VS
** 
** HISTORY OUTPUT: H-Output-3
** 
*Output, history, time interval=0.00025
*Energy Output
ALLAE, ALLCD, ALLCW, ALLDC, ALLDMD, ALLFD, ALLIE, ALLKE, ALLMW, ALLPD, ALLPW, ALLSE, ALLVD, ALLWK, ETOTAL
** 
** HISTORY OUTPUT: H-Output-4
** 
*Node Output, nset=load
RF3, U3
*End Step
