*Heading
** Job name: Mid-edge_ideal_joint Model name: fv_edge_0
** Generated by: Abaqus/CAE 6.14-4
*Preprint, echo=NO, model=NO, history=NO, contact=NO
**
** PARTS
**
*Part, name=fv_edge
*Node
      1,   4.28284264,   19.7171574,           0.
      2,           8.,          16.,           0.
      3,   9.13137054,   22.3029442,           0.
      4,   10.5857868,   20.8485279,           0.
      5,   10.8686295,   20.5656853,           0.
      6,   11.1514721,   20.2828426,           0.
      7,   11.4343147,          20.,           0.
      8,   11.7171574,   19.7171574,           0.
      9,   4.56568527,          20.,           0.
     10,   4.84852791,   20.2828426,           0.
     11,   5.13137102,   20.5656853,           0.
     12,   5.41421366,   20.8485279,           0.
     13,           8.,   23.4343147,           0.
     14,   11.7171574,   12.2828426,           0.
     15,          12.,   12.5656853,           0.
     16,   12.2828426,   12.8485279,           0.
     17,   12.5656853,   13.1313705,           0.
     18,   12.8485279,   13.4142132,           0.
     19,          12.,   19.4343147,           0.
     20,   12.2828426,   19.1514721,           0.
** ... 709 like lines cut
*Element, type=S4R
  1,   1,  44, 154,   9
  2,  44,  45, 155, 154
  3,  45,  46, 156, 155
  4,  46,  47, 157, 156
  5,  47,  48, 158, 157
  6,  48,  49, 159, 158
  7,  49,  50, 160, 159
  8,  50,  51, 161, 160
  9,  51,  52, 162, 161
 10,  52,  53, 163, 162
 11,  53,  54, 164, 163
 12,  54,  55, 165, 164
 13,  55,   2,  56, 165
 14,   9, 154, 166,  10
 15, 154, 155, 167, 166
 16, 155, 156, 168, 167
 17, 156, 157, 169, 168
 18, 157, 158, 170, 169
 19, 158, 159, 171, 170
 20, 159, 160, 172, 171
** ... 656 like lines cut
*Nset, nset=Set-2, generate
   1,  729,    1
*Elset, elset=Set-2, generate
   1,  676,    1
*Nset, nset=Set-3, generate
   1,  729,    1
*Elset, elset=Set-3, generate
   1,  676,    1
** Section: Section-1
*Shell Section, elset=Set-3, composite
1., 3, PLA, 0., P1
1., 3, PLA, 90., P2
*End Part
**  
*Part, name=fv_edge2
*Node
      1,   4.28284264,   19.7171574,           0.
      2,           8.,          16.,           0.
      3,   9.13137054,   22.3029442,           0.
      4,   10.5857868,   20.8485279,           0.
      5,   10.8686295,   20.5656853,           0.
      6,   11.1514721,   20.2828426,           0.
      7,   11.4343147,          20.,           0.
      8,   11.7171574,   19.7171574,           0.
      9,   4.56568527,          20.,           0.
     10,   4.84852791,   20.2828426,           0.
     11,   5.13137102,   20.5656853,           0.
     12,   5.41421366,   20.8485279,           0.
     13,           8.,   23.4343147,           0.
     14,  0.565685451,          16.,           0.
     15,           4.,   19.4343147,           0.
     16,   3.71715736,   19.1514721,           0.
     17,   3.43431449,   18.8686295,           0.
     18,   3.15147185,   18.5857868,           0.
     19,   15.4343147,          16.,           0.
     20,   14.3029442,   17.1313705,           0.
** ... 407 like lines cut
*Element, type=S4R
  1,   1,  25, 115,   9
  2,  25,  26, 116, 115
  3,  26,  27, 117, 116
  4,  27,  28, 118, 117
  5,  28,  29, 119, 118
  6,  29,  30, 120, 119
  7,  30,  31, 121, 120
  8,  31,  32, 122, 121
  9,  32,  33, 123, 122
 10,  33,  34, 124, 123
 11,  34,  35, 125, 124
 12,  35,  36, 126, 125
 13,  36,   2,  37, 126
 14,   9, 115, 127,  10
 15, 115, 116, 128, 127
 16, 116, 117, 129, 128
 17, 117, 118, 130, 129
 18, 118, 119, 131, 130
 19, 119, 120, 132, 131
 20, 120, 121, 133, 132
** ... 358 like lines cut
*Element, type=S3
170, 336, 335, 291
171, 337, 284, 268
172, 333, 316, 318
278, 369, 362, 424
279, 363, 349, 348
280, 402, 411, 409
*Nset, nset=Set-2, generate
   1,  427,    1
*Elset, elset=Set-2, generate
   1,  384,    1
*Nset, nset=Set-3, generate
   1,  427,    1
*Elset, elset=Set-3, generate
   1,  384,    1
** Section: Section-1
*Shell Section, elset=Set-3, composite
1., 3, PLA, 0., P1
1., 3, PLA, 90., P2
*End Part
**  
**
** ASSEMBLY
**
*Assembly, name=Assembly
**  
*Instance, name=fv_edge-1-lin-2-2, part=fv_edge
     14.8686,      14.8686,           0.
*End Instance
**  
*Instance, name=fv_edge-1-lin-2-3, part=fv_edge
     14.8686,      29.7372,           0.
*End Instance
**  
*Instance, name=fv_edge-1-lin-3-2, part=fv_edge
     29.7372,      14.8686,           0.
*End Instance
**  
*Instance, name=fv_edge-1-lin-3-3, part=fv_edge
     29.7372,      29.7372,           0.
*End Instance
**  
*Instance, name=fv_edge-2-lin-2-1, part=fv_edge
   22.302915,     7.434315,           0.
*End Instance
**  
*Instance, name=fv_edge-2-lin-2-2, part=fv_edge
   22.302915,    22.302915,           0.
*End Instance
**  
*Instance, name=fv_edge-2-lin-2-3, part=fv_edge
   22.302915,    37.171515,           0.
*End Instance
**  
*Instance, name=fv_edge-2-lin-3-1, part=fv_edge
   37.171515,     7.434315,           0.
*End Instance
**  
*Instance, name=fv_edge-2-lin-3-2, part=fv_edge
   37.171515,    22.302915,           0.
*End Instance
**  
*Instance, name=fv_edge-2-lin-3-3, part=fv_edge
   37.171515,    37.171515,           0.
*End Instance
**  
*Instance, name=fv_edge-3, part=fv_edge
    44.60583,      14.8686,           0.
*End Instance
**  
*Instance, name=fv_edge-4, part=fv_edge
    44.60583,      29.7372,           0.
*End Instance
**  
*Instance, name=fv_edge2-1, part=fv_edge2
     14.8686,           0.,           0.
*End Instance
**  
*Instance, name=fv_edge2-1-lin-2-1, part=fv_edge2
     29.7372,           0.,           0.
*End Instance
**  
*Instance, name=fv_edge2-1-lin-3-1, part=fv_edge2
     44.6058,           0.,           0.
*End Instance
**  
*Instance, name=fv_edge2-2, part=fv_edge2
   76.040145,    15.434285,           0.
   76.040145,    15.434285,           0.,    76.040145,    15.434285,           1.,          90.
*End Instance
**  
*Instance, name=fv_edge2-2-lin-1-2, part=fv_edge2
   76.040145,    30.302885,           0.
   76.040145,    30.302885,           0.,    76.040145,    30.302885,           1.,          90.
*End Instance
**  
*Instance, name=fv_edge2-2-lin-1-3, part=fv_edge2
   76.040145,    45.171485,           0.
   76.040145,    45.171485,           0.,    76.040145,    45.171485,           1.,          90.
*End Instance
**  
*Instance, name=fv_edge2-3, part=fv_edge2
   -0.565714,    31.434315,           0.
   -0.565714,    31.434315,           0.,    -0.565714,    31.434315,          -1.,          90.
*End Instance
**  
*Instance, name=fv_edge2-3-lin-1-2, part=fv_edge2
   -0.565714,    46.302915,           0.
   -0.565714,    46.302915,           0.,    -0.565714,    46.302915,          -1.,          90.
*End Instance
**  
*Instance, name=fv_edge2-3-lin-1-3, part=fv_edge2
   -0.565714,    61.171515,           0.
   -0.565714,    61.171515,           0.,    -0.565714,    61.171515,          -1.,          90.
*End Instance
**  
*Instance, name=fv_edge2-4, part=fv_edge2
     30.8686,    76.605829,           0.
     30.8686,    76.605829,           0.,      30.8686,    76.605829,           1.,         180.
*End Instance
**  
*Instance, name=fv_edge2-4-lin-2-1, part=fv_edge2
     45.7372,    76.605829,           0.
     45.7372,    76.605829,           0.,      45.7372,    76.605829,           1.,         180.
*End Instance
**  
*Instance, name=fv_edge2-4-lin-3-1, part=fv_edge2
     60.6058,    76.605829,           0.
     60.6058,    76.605829,           0.,      60.6058,    76.605829,           1.,         180.
*End Instance
**  
*Nset, nset=Set-158, instance=fv_edge2-4
 19,
*Nset, nset=Set-159, instance=fv_edge2-4
 19,
*Nset, nset=Set-160, instance=fv_edge2-4-lin-3-1
 14,
*Nset, nset=Set-161, instance=fv_edge2-1
 14,
*Nset, nset=Set-162, instance=fv_edge2-1-lin-3-1
 19,
*Nset, nset=Set-163, instance=fv_edge-1-lin-2-2, generate
   1,  729,    1
*Nset, nset=Set-163, instance=fv_edge-1-lin-2-3, generate
   1,  729,    1
*Nset, nset=Set-163, instance=fv_edge-1-lin-3-2, generate
   1,  729,    1
*Nset, nset=Set-163, instance=fv_edge-2-lin-3-1, generate
   1,  729,    1
*Nset, nset=Set-163, instance=fv_edge2-3-lin-1-2, generate
   1,  427,    1
*Nset, nset=Set-163, instance=fv_edge-4, generate
   1,  729,    1
*Nset, nset=Set-163, instance=fv_edge2-4-lin-3-1, generate
   1,  427,    1
*Nset, nset=Set-163, instance=fv_edge2-2, generate
   1,  427,    1
*Nset, nset=Set-163, instance=fv_edge-2-lin-2-2, generate
   1,  729,    1
*Nset, nset=Set-163, instance=fv_edge-2-lin-3-3, generate
   1,  729,    1
*Nset, nset=Set-163, instance=fv_edge2-4, generate
   1,  427,    1
*Nset, nset=Set-163, instance=fv_edge2-1-lin-2-1, generate
   1,  427,    1
*Nset, nset=Set-163, instance=fv_edge2-2-lin-1-3, generate
   1,  427,    1
*Nset, nset=Set-163, instance=fv_edge-1-lin-3-3, generate
   1,  729,    1
*Nset, nset=Set-163, instance=fv_edge-2-lin-2-1, generate
   1,  729,    1
*Nset, nset=Set-163, instance=fv_edge-2-lin-3-2, generate
   1,  729,    1
*Nset, nset=Set-163, instance=fv_edge2-3-lin-1-3, generate
   1,  427,    1
*Nset, nset=Set-163, instance=fv_edge2-1, generate
   1,  427,    1
*Nset, nset=Set-163, instance=fv_edge2-2-lin-1-2, generate
   1,  427,    1
*Nset, nset=Set-163, instance=fv_edge-2-lin-2-3, generate
   1,  729,    1
*Nset, nset=Set-163, instance=fv_edge-3, generate
   1,  729,    1
*Nset, nset=Set-163, instance=fv_edge2-4-lin-2-1, generate
   1,  427,    1
*Nset, nset=Set-163, instance=fv_edge2-1-lin-3-1, generate
   1,  427,    1
*Nset, nset=Set-163, instance=fv_edge2-3, generate
   1,  427,    1
*Elset, elset=Set-163, instance=fv_edge-1-lin-2-2, generate
   1,  676,    1
*Elset, elset=Set-163, instance=fv_edge-1-lin-2-3, generate
   1,  676,    1
*Elset, elset=Set-163, instance=fv_edge-1-lin-3-2, generate
   1,  676,    1
*Elset, elset=Set-163, instance=fv_edge-2-lin-3-1, generate
   1,  676,    1
*Elset, elset=Set-163, instance=fv_edge2-3-lin-1-2, generate
   1,  384,    1
*Elset, elset=Set-163, instance=fv_edge-4, generate
   1,  676,    1
*Elset, elset=Set-163, instance=fv_edge2-4-lin-3-1, generate
   1,  384,    1
*Elset, elset=Set-163, instance=fv_edge2-2, generate
   1,  384,    1
*Elset, elset=Set-163, instance=fv_edge-2-lin-2-2, generate
   1,  676,    1
*Elset, elset=Set-163, instance=fv_edge-2-lin-3-3, generate
   1,  676,    1
*Elset, elset=Set-163, instance=fv_edge2-4, generate
   1,  384,    1
*Elset, elset=Set-163, instance=fv_edge2-1-lin-2-1, generate
   1,  384,    1
*Elset, elset=Set-163, instance=fv_edge2-2-lin-1-3, generate
   1,  384,    1
*Elset, elset=Set-163, instance=fv_edge-1-lin-3-3, generate
   1,  676,    1
*Elset, elset=Set-163, instance=fv_edge-2-lin-2-1, generate
   1,  676,    1
*Elset, elset=Set-163, instance=fv_edge-2-lin-3-2, generate
   1,  676,    1
*Elset, elset=Set-163, instance=fv_edge2-3-lin-1-3, generate
   1,  384,    1
*Elset, elset=Set-163, instance=fv_edge2-1, generate
   1,  384,    1
*Elset, elset=Set-163, instance=fv_edge2-2-lin-1-2, generate
   1,  384,    1
*Elset, elset=Set-163, instance=fv_edge-2-lin-2-3, generate
   1,  676,    1
*Elset, elset=Set-163, instance=fv_edge-3, generate
   1,  676,    1
*Elset, elset=Set-163, instance=fv_edge2-4-lin-2-1, generate
   1,  384,    1
*Elset, elset=Set-163, instance=fv_edge2-1-lin-3-1, generate
   1,  384,    1
*Elset, elset=Set-163, instance=fv_edge2-3, generate
   1,  384,    1
*Nset, nset=Set-164, instance=fv_edge-1-lin-2-2, generate
   1,  729,    1
*Nset, nset=Set-164, instance=fv_edge-1-lin-2-3, generate
   1,  729,    1
*Nset, nset=Set-164, instance=fv_edge-1-lin-3-2, generate
   1,  729,    1
*Nset, nset=Set-164, instance=fv_edge-2-lin-3-1, generate
   1,  729,    1
*Nset, nset=Set-164, instance=fv_edge2-3-lin-1-2, generate
   1,  427,    1
*Nset, nset=Set-164, instance=fv_edge-4, generate
   1,  729,    1
*Nset, nset=Set-164, instance=fv_edge2-4-lin-3-1, generate
   1,  427,    1
*Nset, nset=Set-164, instance=fv_edge2-2, generate
   1,  427,    1
*Nset, nset=Set-164, instance=fv_edge-2-lin-2-2, generate
   1,  729,    1
*Nset, nset=Set-164, instance=fv_edge-2-lin-3-3, generate
   1,  729,    1
*Nset, nset=Set-164, instance=fv_edge2-4, generate
   1,  427,    1
*Nset, nset=Set-164, instance=fv_edge2-1-lin-2-1, generate
   1,  427,    1
*Nset, nset=Set-164, instance=fv_edge2-2-lin-1-3, generate
   1,  427,    1
*Nset, nset=Set-164, instance=fv_edge-1-lin-3-3, generate
   1,  729,    1
*Nset, nset=Set-164, instance=fv_edge-2-lin-2-1, generate
   1,  729,    1
*Nset, nset=Set-164, instance=fv_edge-2-lin-3-2, generate
   1,  729,    1
*Nset, nset=Set-164, instance=fv_edge2-3-lin-1-3, generate
   1,  427,    1
*Nset, nset=Set-164, instance=fv_edge2-1, generate
   1,  427,    1
*Nset, nset=Set-164, instance=fv_edge2-2-lin-1-2, generate
   1,  427,    1
*Nset, nset=Set-164, instance=fv_edge-2-lin-2-3, generate
   1,  729,    1
*Nset, nset=Set-164, instance=fv_edge-3, generate
   1,  729,    1
*Nset, nset=Set-164, instance=fv_edge2-4-lin-2-1, generate
   1,  427,    1
*Nset, nset=Set-164, instance=fv_edge2-1-lin-3-1, generate
   1,  427,    1
*Nset, nset=Set-164, instance=fv_edge2-3, generate
   1,  427,    1
*Elset, elset=Set-164, instance=fv_edge-1-lin-2-2, generate
   1,  676,    1
*Elset, elset=Set-164, instance=fv_edge-1-lin-2-3, generate
   1,  676,    1
*Elset, elset=Set-164, instance=fv_edge-1-lin-3-2, generate
   1,  676,    1
*Elset, elset=Set-164, instance=fv_edge-2-lin-3-1, generate
   1,  676,    1
*Elset, elset=Set-164, instance=fv_edge2-3-lin-1-2, generate
   1,  384,    1
*Elset, elset=Set-164, instance=fv_edge-4, generate
   1,  676,    1
*Elset, elset=Set-164, instance=fv_edge2-4-lin-3-1, generate
   1,  384,    1
*Elset, elset=Set-164, instance=fv_edge2-2, generate
   1,  384,    1
*Elset, elset=Set-164, instance=fv_edge-2-lin-2-2, generate
   1,  676,    1
*Elset, elset=Set-164, instance=fv_edge-2-lin-3-3, generate
   1,  676,    1
*Elset, elset=Set-164, instance=fv_edge2-4, generate
   1,  384,    1
*Elset, elset=Set-164, instance=fv_edge2-1-lin-2-1, generate
   1,  384,    1
*Elset, elset=Set-164, instance=fv_edge2-2-lin-1-3, generate
   1,  384,    1
*Elset, elset=Set-164, instance=fv_edge-1-lin-3-3, generate
   1,  676,    1
*Elset, elset=Set-164, instance=fv_edge-2-lin-2-1, generate
   1,  676,    1
*Elset, elset=Set-164, instance=fv_edge-2-lin-3-2, generate
   1,  676,    1
*Elset, elset=Set-164, instance=fv_edge2-3-lin-1-3, generate
   1,  384,    1
*Elset, elset=Set-164, instance=fv_edge2-1, generate
   1,  384,    1
*Elset, elset=Set-164, instance=fv_edge2-2-lin-1-2, generate
   1,  384,    1
*Elset, elset=Set-164, instance=fv_edge-2-lin-2-3, generate
   1,  676,    1
*Elset, elset=Set-164, instance=fv_edge-3, generate
   1,  676,    1
*Elset, elset=Set-164, instance=fv_edge2-4-lin-2-1, generate
   1,  384,    1
*Elset, elset=Set-164, instance=fv_edge2-1-lin-3-1, generate
   1,  384,    1
*Elset, elset=Set-164, instance=fv_edge2-3, generate
   1,  384,    1
*Nset, nset=m_Set-86, instance=fv_edge2-3-lin-1-3
 1,
*Nset, nset=m_Set-88, instance=fv_edge-1-lin-2-3
 1,
*Nset, nset=m_Set-90, instance=fv_edge2-3-lin-1-2
 1,
*Nset, nset=m_Set-92, instance=fv_edge-1-lin-2-2
 1,
*Nset, nset=m_Set-94, instance=fv_edge2-3
 1,
*Nset, nset=m_Set-96, instance=fv_edge2-1
 1,
*Nset, nset=m_Set-98, instance=fv_edge-2-lin-2-1
 34,
*Nset, nset=m_Set-100, instance=fv_edge-1-lin-2-2
 14,
*Nset, nset=m_Set-102, instance=fv_edge-2-lin-2-2
 34,
*Nset, nset=m_Set-104, instance=fv_edge-1-lin-2-3
 14,
*Nset, nset=m_Set-106, instance=fv_edge-2-lin-2-3
 34,
*Nset, nset=m_Set-108, instance=fv_edge2-4
 1,
*Nset, nset=m_Set-110, instance=fv_edge-2-lin-2-3
 8,
*Nset, nset=m_Set-112, instance=fv_edge-1-lin-3-3
 1,
*Nset, nset=m_Set-114, instance=fv_edge-2-lin-2-2
 8,
*Nset, nset=m_Set-116, instance=fv_edge-1-lin-3-2
 1,
*Nset, nset=m_Set-118, instance=fv_edge-2-lin-2-1
 8,
*Nset, nset=m_Set-120, instance=fv_edge2-1-lin-2-1
 1,
*Nset, nset=m_Set-122, instance=fv_edge2-1-lin-2-1
 8,
*Nset, nset=m_Set-124, instance=fv_edge-2-lin-3-1
 1,
*Nset, nset=m_Set-126, instance=fv_edge-1-lin-3-2
 8,
*Nset, nset=m_Set-128, instance=fv_edge-2-lin-3-2
 1,
*Nset, nset=m_Set-130, instance=fv_edge-1-lin-3-3
 8,
*Nset, nset=m_Set-132, instance=fv_edge-2-lin-3-3
 1,
*Nset, nset=m_Set-134, instance=fv_edge2-4-lin-3-1
 8,
*Nset, nset=m_Set-136, instance=fv_edge-2-lin-3-3
 14,
*Nset, nset=m_Set-138, instance=fv_edge-4
 34,
*Nset, nset=m_Set-140, instance=fv_edge-2-lin-3-2
 14,
*Nset, nset=m_Set-142, instance=fv_edge-3
 34,
*Nset, nset=m_Set-144, instance=fv_edge-2-lin-3-1
 14,
*Nset, nset=m_Set-146, instance=fv_edge2-1-lin-3-1
 8,
*Nset, nset=m_Set-148, instance=fv_edge2-2
 8,
*Nset, nset=m_Set-150, instance=fv_edge-3
 8,
*Nset, nset=m_Set-152, instance=fv_edge2-2-lin-1-2
 8,
*Nset, nset=m_Set-154, instance=fv_edge-4
 8,
*Nset, nset=m_Set-156, instance=fv_edge2-2-lin-1-3
 8,
*Nset, nset=s_Set-86, instance=fv_edge2-4
 8,
*Nset, nset=s_Set-88, instance=fv_edge2-3-lin-1-3
 8,
*Nset, nset=s_Set-90, instance=fv_edge-1-lin-2-3
 34,
*Nset, nset=s_Set-92, instance=fv_edge2-3-lin-1-2
 8,
*Nset, nset=s_Set-94, instance=fv_edge-1-lin-2-2
 34,
*Nset, nset=s_Set-96, instance=fv_edge2-3
 8,
*Nset, nset=s_Set-98, instance=fv_edge2-1
 8,
*Nset, nset=s_Set-100, instance=fv_edge-2-lin-2-1
 1,
*Nset, nset=s_Set-102, instance=fv_edge-1-lin-2-2
 8,
*Nset, nset=s_Set-104, instance=fv_edge-2-lin-2-2
 1,
*Nset, nset=s_Set-106, instance=fv_edge-1-lin-2-3
 8,
*Nset, nset=s_Set-108, instance=fv_edge-2-lin-2-3
 1,
*Nset, nset=s_Set-110, instance=fv_edge2-4-lin-2-1
 8,
*Nset, nset=s_Set-112, instance=fv_edge-2-lin-2-3
 14,
*Nset, nset=s_Set-114, instance=fv_edge-1-lin-3-3
 34,
*Nset, nset=s_Set-116, instance=fv_edge-2-lin-2-2
 14,
*Nset, nset=s_Set-118, instance=fv_edge-1-lin-3-2
 34,
*Nset, nset=s_Set-120, instance=fv_edge-2-lin-2-1
 14,
*Nset, nset=s_Set-122, instance=fv_edge-2-lin-3-1
 34,
*Nset, nset=s_Set-124, instance=fv_edge-1-lin-3-2
 14,
*Nset, nset=s_Set-126, instance=fv_edge-2-lin-3-2
 34,
*Nset, nset=s_Set-128, instance=fv_edge-1-lin-3-3
 14,
*Nset, nset=s_Set-130, instance=fv_edge-2-lin-3-3
 34,
*Nset, nset=s_Set-132, instance=fv_edge2-4-lin-2-1
 1,
*Nset, nset=s_Set-134, instance=fv_edge-2-lin-3-3
 8,
*Nset, nset=s_Set-136, instance=fv_edge-4
 1,
*Nset, nset=s_Set-138, instance=fv_edge-2-lin-3-2
 8,
*Nset, nset=s_Set-140, instance=fv_edge-3
 1,
*Nset, nset=s_Set-142, instance=fv_edge-2-lin-3-1
 8,
*Nset, nset=s_Set-144, instance=fv_edge2-1-lin-3-1
 1,
*Nset, nset=s_Set-146, instance=fv_edge2-2
 1,
*Nset, nset=s_Set-148, instance=fv_edge-3
 14,
*Nset, nset=s_Set-150, instance=fv_edge2-2-lin-1-2
 1,
*Nset, nset=s_Set-152, instance=fv_edge-4
 14,
*Nset, nset=s_Set-154, instance=fv_edge2-2-lin-1-3
 1,
*Nset, nset=s_Set-156, instance=fv_edge2-4-lin-3-1
 1,
*Surface, type=NODE, name=s_Set-86_CNS_, internal
s_Set-86, 1.
*Surface, type=NODE, name=s_Set-88_CNS_, internal
s_Set-88, 1.
*Surface, type=NODE, name=s_Set-90_CNS_, internal
s_Set-90, 1.
*Surface, type=NODE, name=s_Set-92_CNS_, internal
s_Set-92, 1.
*Surface, type=NODE, name=s_Set-94_CNS_, internal
s_Set-94, 1.
*Surface, type=NODE, name=s_Set-96_CNS_, internal
s_Set-96, 1.
*Surface, type=NODE, name=s_Set-98_CNS_, internal
s_Set-98, 1.
*Surface, type=NODE, name=s_Set-100_CNS_, internal
s_Set-100, 1.
*Surface, type=NODE, name=s_Set-102_CNS_, internal
s_Set-102, 1.
*Surface, type=NODE, name=s_Set-104_CNS_, internal
s_Set-104, 1.
*Surface, type=NODE, name=s_Set-106_CNS_, internal
s_Set-106, 1.
*Surface, type=NODE, name=s_Set-108_CNS_, internal
s_Set-108, 1.
*Surface, type=NODE, name=s_Set-110_CNS_, internal
s_Set-110, 1.
*Surface, type=NODE, name=s_Set-112_CNS_, internal
s_Set-112, 1.
*Surface, type=NODE, name=s_Set-114_CNS_, internal
s_Set-114, 1.
*Surface, type=NODE, name=s_Set-116_CNS_, internal
s_Set-116, 1.
*Surface, type=NODE, name=s_Set-118_CNS_, internal
s_Set-118, 1.
*Surface, type=NODE, name=s_Set-120_CNS_, internal
s_Set-120, 1.
*Surface, type=NODE, name=s_Set-122_CNS_, internal
s_Set-122, 1.
*Surface, type=NODE, name=s_Set-124_CNS_, internal
s_Set-124, 1.
** ... 32 like lines cut
** Constraint: Constraint-8
*Coupling, constraint name=Constraint-8, ref node=m_Set-86, surface=s_Set-86_CNS_
*Kinematic
1, 1
2, 2
3, 3
** Constraint: Constraint-9
*Coupling, constraint name=Constraint-9, ref node=m_Set-88, surface=s_Set-88_CNS_
*Kinematic
1, 1
2, 2
3, 3
** Constraint: Constraint-10
*Coupling, constraint name=Constraint-10, ref node=m_Set-90, surface=s_Set-90_CNS_
*Kinematic
1, 1
2, 2
3, 3
** Constraint: Constraint-11
*Coupling, constraint name=Constraint-11, ref node=m_Set-92, surface=s_Set-92_CNS_
*Kinematic
1, 1
2, 2
3, 3
** Constraint: Constraint-12
*Coupling, constraint name=Constraint-12, ref node=m_Set-94, surface=s_Set-94_CNS_
*Kinematic
1, 1
2, 2
3, 3
** Constraint: Constraint-13
*Coupling, constraint name=Constraint-13, ref node=m_Set-96, surface=s_Set-96_CNS_
*Kinematic
1, 1
2, 2
3, 3
** Constraint: Constraint-14
*Coupling, constraint name=Constraint-14, ref node=m_Set-98, surface=s_Set-98_CNS_
*Kinematic
1, 1
2, 2
3, 3
** Constraint: Constraint-15
*Coupling, constraint name=Constraint-15, ref node=m_Set-100, surface=s_Set-100_CNS_
*Kinematic
1, 1
2, 2
3, 3
** Constraint: Constraint-16
*Coupling, constraint name=Constraint-16, ref node=m_Set-102, surface=s_Set-102_CNS_
*Kinematic
1, 1
2, 2
3, 3
** Constraint: Constraint-17
*Coupling, constraint name=Constraint-17, ref node=m_Set-104, surface=s_Set-104_CNS_
*Kinematic
1, 1
2, 2
3, 3
** Constraint: Constraint-18
*Coupling, constraint name=Constraint-18, ref node=m_Set-106, surface=s_Set-106_CNS_
*Kinematic
1, 1
2, 2
3, 3
** Constraint: Constraint-19
*Coupling, constraint name=Constraint-19, ref node=m_Set-108, surface=s_Set-108_CNS_
*Kinematic
1, 1
2, 2
3, 3
** Constraint: Constraint-20
*Coupling, constraint name=Constraint-20, ref node=m_Set-110, surface=s_Set-110_CNS_
*Kinematic
1, 1
2, 2
3, 3
** Constraint: Constraint-21
*Coupling, constraint name=Constraint-21, ref node=m_Set-112, surface=s_Set-112_CNS_
*Kinematic
1, 1
2, 2
3, 3
** Constraint: Constraint-22
*Coupling, constraint name=Constraint-22, ref node=m_Set-114, surface=s_Set-114_CNS_
*Kinematic
1, 1
2, 2
3, 3
** Constraint: Constraint-23
*Coupling, constraint name=Constraint-23, ref node=m_Set-116, surface=s_Set-116_CNS_
*Kinematic
1, 1
2, 2
3, 3
** Constraint: Constraint-24
*Coupling, constraint name=Constraint-24, ref node=m_Set-118, surface=s_Set-118_CNS_
*Kinematic
1, 1
2, 2
3, 3
** Constraint: Constraint-25
*Coupling, constraint name=Constraint-25, ref node=m_Set-120, surface=s_Set-120_CNS_
*Kinematic
1, 1
2, 2
3, 3
** Constraint: Constraint-26
*Coupling, constraint name=Constraint-26, ref node=m_Set-122, surface=s_Set-122_CNS_
*Kinematic
1, 1
2, 2
3, 3
** Constraint: Constraint-27
*Coupling, constraint name=Constraint-27, ref node=m_Set-124, surface=s_Set-124_CNS_
*Kinematic
1, 1
2, 2
3, 3
** Constraint: Constraint-28
*Coupling, constraint name=Constraint-28, ref node=m_Set-126, surface=s_Set-126_CNS_
*Kinematic
1, 1
2, 2
3, 3
** Constraint: Constraint-29
*Coupling, constraint name=Constraint-29, ref node=m_Set-128, surface=s_Set-128_CNS_
*Kinematic
1, 1
2, 2
3, 3
** Constraint: Constraint-30
*Coupling, constraint name=Constraint-30, ref node=m_Set-130, surface=s_Set-130_CNS_
*Kinematic
1, 1
2, 2
3, 3
** Constraint: Constraint-31
*Coupling, constraint name=Constraint-31, ref node=m_Set-132, surface=s_Set-132_CNS_
*Kinematic
1, 1
2, 2
3, 3
** Constraint: Constraint-32
*Coupling, constraint name=Constraint-32, ref node=m_Set-134, surface=s_Set-134_CNS_
*Kinematic
1, 1
2, 2
3, 3
** Constraint: Constraint-33
*Coupling, constraint name=Constraint-33, ref node=m_Set-136, surface=s_Set-136_CNS_
*Kinematic
1, 1
2, 2
3, 3
** Constraint: Constraint-34
*Coupling, constraint name=Constraint-34, ref node=m_Set-138, surface=s_Set-138_CNS_
*Kinematic
1, 1
2, 2
3, 3
** Constraint: Constraint-35
*Coupling, constraint name=Constraint-35, ref node=m_Set-140, surface=s_Set-140_CNS_
*Kinematic
1, 1
2, 2
3, 3
** Constraint: Constraint-36
*Coupling, constraint name=Constraint-36, ref node=m_Set-142, surface=s_Set-142_CNS_
*Kinematic
1, 1
2, 2
3, 3
** Constraint: Constraint-37
*Coupling, constraint name=Constraint-37, ref node=m_Set-144, surface=s_Set-144_CNS_
*Kinematic
1, 1
2, 2
3, 3
** Constraint: Constraint-38
*Coupling, constraint name=Constraint-38, ref node=m_Set-146, surface=s_Set-146_CNS_
*Kinematic
1, 1
2, 2
3, 3
** Constraint: Constraint-39
*Coupling, constraint name=Constraint-39, ref node=m_Set-148, surface=s_Set-148_CNS_
*Kinematic
1, 1
2, 2
3, 3
** Constraint: Constraint-40
*Coupling, constraint name=Constraint-40, ref node=m_Set-150, surface=s_Set-150_CNS_
*Kinematic
1, 1
2, 2
3, 3
** Constraint: Constraint-41
*Coupling, constraint name=Constraint-41, ref node=m_Set-152, surface=s_Set-152_CNS_
*Kinematic
1, 1
2, 2
3, 3
** Constraint: Constraint-42
*Coupling, constraint name=Constraint-42, ref node=m_Set-154, surface=s_Set-154_CNS_
*Kinematic
1, 1
2, 2
3, 3
** Constraint: Constraint-43
*Coupling, constraint name=Constraint-43, ref node=m_Set-156, surface=s_Set-156_CNS_
*Kinematic
1, 1
2, 2
3, 3
*End Assembly
*Amplitude, name=Amp-1, definition=SMOOTH STEP
             0.,             25.,             0.1,             55.
*Amplitude, name=Amp-2, definition=SMOOTH STEP
             0.,              0.,             0.5,              1.
*Amplitude, name=Amp-3
             0.,             25.,             0.5,             65.
*Amplitude, name=Amp-4
             0.,              0.,            0.25,              1.,             0.5,              0.
** 
** MATERIALS
** 
*Material, name=PLA
*Density
 1.25e-09,
*Elastic, type=LAMINA
 8.26, 6.608,  0.45,  0.79,  0.79,  0.79
*Expansion, type=ORTHO
 -0.00144675, 0.00017025,         0.
** 
** INTERACTION PROPERTIES
** 
*Surface Interaction, name=IntProp-1
*Friction
0.,
*Surface Behavior, pressure-overclosure=HARD
** 
** BOUNDARY CONDITIONS
** 
** Name: BC-5 Type: Displacement/Rotation
*Boundary
Set-159, 1, 1
Set-159, 2, 2
Set-159, 3, 3
** Name: BC-6 Type: Displacement/Rotation
*Boundary
Set-160, 2, 2
Set-160, 3, 3
** Name: BC-7 Type: Displacement/Rotation
*Boundary
Set-161, 1, 1
Set-161, 3, 3
** Name: BC-8 Type: Displacement/Rotation
*Boundary
Set-162, 3, 3
** 
** PREDEFINED FIELDS
** 
** Name: Predefined Field-7   Type: Temperature
*Initial Conditions, type=TEMPERATURE
Set-164, 25.
** ----------------------------------------------------------------
** 
** STEP: Step-3
** 
*Step, name=Step-3, nlgeom=YES
*Dynamic, Explicit
, 0.5
*Bulk Viscosity
0.06, 1.2
** 
** PREDEFINED FIELDS
** 
** Name: Predefined Field-7   Type: Temperature
*Temperature, amplitude=Amp-3
Set-164, 1.
** 
** OUTPUT REQUESTS
** 
*Restart, write, number interval=1, time marks=NO
** 
** FIELD OUTPUT: F-Output-2
** 
*Output, field, number interval=100
*Node Output
U, UT
*Element Output, directions=YES
EDCDEN, EDT, ELEDEN, ELEN, ENER, MISES, S
** 
** HISTORY OUTPUT: H-Output-2
** 
*Output, history
*Energy Output
ALLAE, ALLCD, ALLCW, ALLDC, ALLDMD, ALLFD, ALLIE, ALLKE, ALLMW, ALLPD, ALLPW, ALLSE, ALLVD, ALLWK, ETOTAL
*End Step
