*Heading
** Job name: Unit_90_bistable-17-3 Model name: Unit_90-bistable
** Generated by: Abaqus/CAE 6.14-4
*Preprint, echo=NO, model=NO, history=NO, contact=NO
**
** PARTS
**
*Part, name=Part-8
*Node
      1,           0., -0.565685451,           0.
      2,  0.565685451,           0.,           0.
      3,           0.,  0.565685451,           0.
      4, -0.565685451,           0.,           0.
      5,    1.1313709,  -1.69705629,           0.
      6,   1.69705629,   -1.1313709,           0.
      7,   1.69705629,    1.1313709,           0.
      8,    1.1313709,   1.69705629,           0.
      9,   -1.1313709,   1.69705629,           0.
     10,  -1.69705629,    1.1313709,           0.
     11,  -1.69705629,   -1.1313709,           0.
     12,   -1.1313709,  -1.69705629,           0.
     13,           8.,  -7.43431473,           0.
     14,   6.86862898,  -6.30294371,           0.
     15,   7.43431473,          -8.,           0.
     16,   6.30294371,  -6.86862898,           0.
     17,           8.,          -8.,           0.
     18,   6.30294371,   6.86862898,           0.
     19,   6.86862898,   6.30294371,           0.
     20,           8.,   7.43431473,           0.
** ... 7466 like lines cut
*Element, type=S4R
 1,   1,  33, 801,  52
 2,  33,  34, 802, 801
 3,  34,  35, 803, 802
 4,  35,  36, 804, 803
 5,  36,  37, 805, 804
 6,  37,   2,  38, 805
 7,  52, 801, 806,  51
 8, 801, 802, 807, 806
 9, 802, 803, 808, 807
10, 803, 804, 809, 808
11, 804, 805, 810, 809
12, 805,  38,  39, 810
13,  51, 806, 811,  50
14, 806, 807, 812, 811
15, 807, 808, 813, 812
16, 808, 809, 814, 813
17, 809, 810, 815, 814
18, 810,  39,  40, 815
19,  50, 811, 816,  49
20, 811, 812, 817, 816
** ... 7046 like lines cut
*Element, type=S3
343, 1824, 1119, 1748
344, 2529, 1880, 1788
345, 2596, 2147, 1225
346, 1654, 1318, 1591
347, 2464, 1958, 1314
348, 2632, 2285, 1210
349, 2334, 2326, 2306
350, 2364, 2358, 2361
351, 2570, 1933, 1224
352, 2273, 2258, 1226
353, 2392, 1443, 1414
354, 1054, 2392, 1414
355, 1778, 1559, 1235
356, 2391, 1666, 1576
357, 1670, 1582, 1333
358, 1829, 1640, 1767
359, 2452, 2480, 1656
360, 2525, 2524, 1068
361, 2476, 1819, 1859
362, 1772, 1203, 1796
** ... 162 like lines cut
*Nset, nset=Set-1
    1,    2,    3,    4,    5,    6,    7,    8,    9,   10,   11,   12,   13,   14,   15,   16
   18,   19,   20,   22,   23,   24,   25,   27,   28,   29,   30,   32,   53,   54,   55,   56
   57,   58,   59,   65,   66,   67,   68,   69,   70,   71,   72,   73,   74,   75,   76,   77
   78,   84,   85,   86,   87,   88,   89,   90,   91,   92,   93,   94,   95,   96,   97,  103
  104,  105,  106,  107,  108,  109,  110,  111,  112,  113,  114,  115,  116,  122,  123,  124
  125,  126,  127,  128,  129,  130,  131,  132,  133,  134,  135,  143,  144,  145,  146,  147
  148,  149,  157,  158,  159,  160,  161,  162,  163,  168,  169,  170,  171,  172,  173,  174
  175,  176,  177,  178,  179,  180,  181,  182,  183,  184,  185,  186,  187,  188,  189,  190
  191,  192,  193,  194,  195,  196,  197,  198,  199,  200,  201,  202,  203,  204,  205,  206
  207,  208,  209,  210,  211,  212,  213,  214,  215,  216,  217,  218,  219,  220,  221,  222
  223,  224,  225,  226,  227,  228,  229,  230,  231,  232,  233,  234,  235,  236,  237,  238
  239,  240,  241,  242,  243,  244,  245,  246,  247,  248,  249,  250,  251,  252,  253,  254
  255,  256,  257,  258,  259,  260,  261,  262,  263,  264,  265,  266,  267,  268,  269,  270
  271,  272,  273,  274,  275,  276,  277,  278,  279,  280,  281,  282,  283,  284,  285,  286
  287,  288,  289,  290,  291,  292,  293,  294,  295,  296,  297,  298,  299,  300,  301,  302
  303,  304,  305,  306,  307,  308,  309,  310,  311,  312,  313,  314,  315,  316,  317,  318
  319,  320,  321,  322,  323,  324,  325,  326,  327,  328,  329,  330,  331,  332,  333,  334
  335,  336,  337,  338,  339,  340,  341,  342,  343,  344,  345,  346,  347,  348,  349,  350
  351,  352,  353,  354,  355,  356,  357,  358,  359,  360,  361,  362,  363,  364,  365,  366
  367,  368,  369,  370,  371,  372,  373,  374,  375,  376,  377,  378,  379,  380,  381,  382
** ... 422 like lines cut
*Elset, elset=Set-1
  343,  344,  345,  346,  347,  348,  349,  350,  351,  352,  353,  354,  355,  356,  357,  358
  359,  360,  361,  362,  363,  364,  365,  366,  367,  368,  369,  370,  371,  372,  373,  374
  375,  376,  377,  378,  379,  380,  381,  382,  383,  384,  385,  386,  387,  388,  389,  390
  391,  392,  393,  394,  395,  396,  397,  398,  399,  400,  401,  402,  403,  404,  405,  406
  407,  408,  409,  410,  411,  412,  413,  414,  415,  416,  417,  418,  419,  420,  421,  422
  423,  424,  425,  426,  427,  428,  429,  430,  431,  432,  433,  434,  435,  436,  437,  438
  439,  440,  441,  442,  443,  444,  445,  446,  447,  448,  449,  450,  451,  452,  453,  454
  455,  456,  457,  458,  459,  460,  461,  462,  463,  464,  465,  466,  467,  468,  469,  470
  471,  472,  473,  474,  475,  476,  477,  478,  479,  480,  481,  482,  483,  484,  485,  486
  487,  488,  489,  490,  491,  492,  493,  494,  495,  496,  497,  498,  499,  500,  501,  502
  503,  504,  505,  506,  507,  508,  509,  510,  511,  512,  513,  514,  515,  516,  517,  518
  519,  520,  521,  522,  523,  524,  525,  526,  527,  528,  529,  530,  531,  532,  533,  534
  535,  536,  537,  538,  539,  540,  541,  542,  543,  544,  545,  546,  547,  548,  549,  550
  551,  552,  553,  554,  555,  556,  557,  558,  559,  560,  561,  562,  563,  564,  565,  566
  567,  568,  569,  570,  571,  572,  573,  574,  575,  576,  577,  578,  579,  580,  581,  582
  583,  584,  585,  586,  587,  588,  589,  590,  591,  592,  593,  594,  595,  596,  597,  598
  599,  600,  601,  602,  603,  604,  605,  606,  607,  608,  609,  610,  611,  612,  613,  614
  615,  616,  617,  618,  619,  620,  621,  622,  623,  624,  625,  626,  627,  628,  629,  630
  631,  632,  633,  634,  635,  636,  637,  638,  639,  640,  641,  642,  643,  644,  645,  646
  647,  648,  649,  650,  651,  652,  653,  654,  655,  656,  657,  658,  659,  660,  661,  662
** ... 405 like lines cut
*Nset, nset=Set-2
    1,    2,    3,    4,    5,    6,    7,    8,    9,   10,   11,   12,   13,   14,   15,   16
   17,   18,   19,   20,   21,   22,   23,   24,   25,   26,   27,   28,   29,   30,   31,   32
   33,   34,   35,   36,   37,   38,   39,   40,   41,   42,   43,   44,   45,   46,   47,   48
   49,   50,   51,   52,   53,   54,   55,   56,   57,   58,   59,   60,   61,   62,   63,   64
   65,   66,   67,   68,   69,   70,   71,   72,   73,   74,   75,   76,   77,   78,   79,   80
   81,   82,   83,   84,   85,   86,   87,   88,   89,   90,   91,   92,   93,   94,   95,   96
   97,   98,   99,  100,  101,  102,  103,  104,  105,  106,  107,  108,  109,  110,  111,  112
  113,  114,  115,  116,  117,  118,  119,  120,  121,  122,  123,  124,  125,  126,  127,  128
  129,  130,  131,  132,  133,  134,  135,  136,  137,  138,  139,  140,  141,  142,  143,  144
  145,  146,  147,  148,  149,  150,  151,  152,  153,  154,  155,  156,  157,  158,  159,  160
  161,  162,  163,  164,  165,  166,  167,  168,  169,  170,  171,  172,  173,  174,  356,  357
  358,  359,  360,  361,  362,  472,  473,  474,  475,  476,  477,  478,  479,  480,  481,  482
  483,  484,  485,  486,  487,  488,  489,  490,  491,  492,  493,  494,  495,  496,  497,  498
  499,  500,  501,  502,  503,  504,  505,  506,  507,  508,  509,  510,  801,  802,  803,  804
  805,  806,  807,  808,  809,  810,  811,  812,  813,  814,  815,  816,  817,  818,  819,  820
  821,  822,  823,  824,  825,  826,  827,  828,  829,  830,  831,  832,  833,  834,  835,  836
  837,  838,  839,  840,  841,  842,  843,  844,  845,  846,  847,  848,  849,  850,  851,  852
  853,  854,  855,  856,  857,  858,  859,  860,  861,  862,  863,  864,  865,  866,  867,  868
  869,  870,  871,  872,  873,  874,  875,  876,  877,  878,  879,  880,  881,  882,  883,  884
  885,  886,  887,  888,  889,  890,  891,  892,  893,  894,  895,  896,  897,  898,  899,  900
** ... 16 like lines cut
*Elset, elset=Set-2
    1,    2,    3,    4,    5,    6,    7,    8,    9,   10,   11,   12,   13,   14,   15,   16
   17,   18,   19,   20,   21,   22,   23,   24,   25,   26,   27,   28,   29,   30,   31,   32
   33,   34,   35,   36,   37,   38,   39,   40,   41,   42,   43,   44,   45,   46,   47,   48
   49,   50,   51,   52,   53,   54,   55,   56,   57,   58,   59,   60,   61,   62,   63,   64
   65,   66,   67,   68,   69,   70,   71,   72,   73,   74,   75,   76,   77,   78,   79,   80
   81,   82,   83,   84,   85,   86,   87,   88,   89,   90,   91,   92,   93,   94,   95,   96
   97,   98,   99,  100,  101,  102,  103,  104,  105,  106,  107,  108,  109,  110,  111,  112
  113,  114,  115,  116,  117,  118,  119,  120,  121,  122,  123,  124,  125,  126,  127,  128
  129,  130,  131,  132,  133,  134,  135,  136,  137,  138,  139,  140,  141,  142,  143,  144
  145,  146,  147,  148,  149,  150,  151,  152,  153,  154,  155,  156,  157,  158,  159,  160
  161,  162,  163,  164,  165,  166,  167,  168,  169,  170,  171,  172,  173,  174,  175,  176
  177,  178,  179,  180,  181,  182,  183,  184,  185,  186,  187,  188,  189,  190,  191,  192
  193,  194,  195,  196,  197,  198,  199,  200,  201,  202,  203,  204,  205,  206,  207,  208
  209,  210,  211,  212,  213,  214,  215,  216,  217,  218,  219,  220,  221,  222,  223,  224
  225,  226,  227,  228,  229,  230,  231,  232,  233,  234,  235,  236,  237,  238,  239,  240
  241,  242,  243,  244,  245,  246,  247,  248,  249,  250,  251,  252,  253,  254,  255,  256
  257,  258,  259,  260,  261,  262,  263,  264,  265,  266,  267,  268,  269,  270,  271,  272
  273,  274,  275,  276,  277,  278,  279,  280,  281,  282,  283,  284,  285,  286,  287,  288
  289,  290,  291,  292,  293,  294,  295,  296,  297,  298,  299,  300,  301,  302,  303,  304
  305,  306,  307,  308,  309,  310,  311,  312,  313,  314,  315,  316,  317,  318,  319,  320
** ... 9 like lines cut
** Section: Section-2
*Shell Section, elset=Set-2, material=PLA
0.4, 5
** Section: Section-1
*Shell Section, elset=Set-1, composite
1.7, 3, PLA, 0., P1
0.3, 3, PLA, 90., P2
*End Part
**  
*Part, name=harmer
*Node
      1,          0.5,           0.,           0.
      2,          0.5,          2.5,           0.
      3,           0.,         -0.5,           0.
      4,  0.489764959,           0.,   0.10064926
      5,  0.459478915,           0.,  0.197177932
      6,  0.410381734,           0.,    0.2856341
      7,  0.344483465,           0.,  0.362396389
      8,  0.264481992,           0.,  0.424322128
      9,  0.173652619,           0.,  0.468876064
     10, 0.0757138878,           0.,  0.494234174
     11, -0.0253245849,           0.,  0.499358267
     12, -0.125326261,           0.,  0.484038562
     13, -0.220197082,           0.,  0.448902279
     14, -0.306052983,           0.,  0.395387858
     15, -0.379379064,           0.,  0.325686246
     16, -0.437173307,           0.,  0.242650986
     17, -0.477069616,           0.,  0.149681568
     18, -0.497434676,           0., 0.0505841598
     19, -0.497434676,           0., -0.0505841598
     20, -0.477069616,           0., -0.149681568
** ... 951 like lines cut
*Element, type=R3D4
  1,   1,  33,  95,  34
  2,  33,  32,  96,  95
  3,  32,  31,  97,  96
  4,  31,  30,  98,  97
  5,  30,  29,  99,  98
  6,  29,  28, 100,  99
  7,  28,  27, 101, 100
  8,  27,  26, 102, 101
  9,  26,  25, 103, 102
 10,  25,  24, 104, 103
 11,  24,  23, 105, 104
 12,  23,  22, 106, 105
 13,  22,  21, 107, 106
 14,  21,  20, 108, 107
 15,  20,  19, 109, 108
 16,  19,  18, 110, 109
 17,  18,  17, 111, 110
 18,  17,  16, 112, 111
 19,  16,  15, 113, 112
 20,  15,  14, 114, 113
** ... 932 like lines cut
*Element, type=R3D3
776, 924, 879, 934
777, 831, 832, 836
778, 965, 847, 897
779, 842, 841, 895
780, 961, 834, 829
*Node
    972,  -9.80026967e-16,         -0.5,           0.
*Nset, nset=harmer-RefPt_, internal
972, 
*Nset, nset=Set-1
 972,
*Elset, elset=harmer, generate
   1,  957,    1
*Element, type=MASS, elset=Set-1_Inertia-1_MASS_
958, 972
*Mass, elset=Set-1_Inertia-1_MASS_
1e-11, 
*Element, type=ROTARYI, elset=Set-1_Inertia-1_ROTI_
959, 972
*Rotary Inertia, elset=Set-1_Inertia-1_ROTI_
1e-11, 1e-11, 1e-11, 0., 0., 0.
*End Part
**  
**
** ASSEMBLY
**
*Assembly, name=Assembly
**  
*Instance, name=Part-8-2, part=Part-8
*End Instance
**  
*Instance, name=harmer-1, part=harmer
 -2.22044604925031e-16,  -6.12323399573676e-17,         -0.5
 -2.22044604925031e-16,  -6.12323399573676e-17,         -0.5,          -1.,  -6.12323399573676e-17,         -0.5,          90.
*End Instance
**  
*Nset, nset=Set-99, instance=harmer-1
 972,
*Nset, nset=Set-100, instance=Part-8-2
 17,
*Nset, nset=Set-101, instance=Part-8-2
 26,
*Nset, nset=Set-102, instance=Part-8-2
 21,
*Nset, nset=Set-103, instance=Part-8-2
 31,
*Nset, nset=Set-104, instance=Part-8-2, generate
    1,  7486,     1
*Nset, nset=Set-104, instance=harmer-1, generate
  1,  94,   1
*Elset, elset=Set-104, instance=Part-8-2, generate
    1,  7248,     1
*Elset, elset=Set-104, instance=harmer-1
   1,   2,   3,   4,   5,   6,   7,   8,   9,  10,  11,  12,  13,  14,  15,  16
  17,  18,  19,  20,  21,  22,  23,  24,  25,  26,  27,  28,  29,  30,  31,  32
  62,  63,  93,  94, 124, 125, 155, 156, 186, 187, 217, 218, 248, 249, 279, 280
 310, 311, 341, 342, 372, 373, 403, 404, 434, 435, 465, 466, 496, 497, 527, 528
 558, 559, 589, 590, 620, 621, 651, 652, 682, 683, 713, 714, 744, 745, 746, 747
 748, 749, 750, 751, 752, 753, 754, 755, 756, 757, 758, 759, 760, 761, 762, 763
 764, 765, 766, 767, 768, 769, 770, 771, 772, 773, 774, 775, 781, 786, 797, 798
 799, 800, 801, 802, 803, 809, 814, 822, 827, 830, 833, 834, 839, 840, 841, 842
 844, 845, 849, 852, 853, 856, 857, 858, 860, 870, 875, 885, 890, 891, 892, 904
 927, 931, 948, 949, 950, 951, 952, 953, 954
*Nset, nset=load, instance=harmer-1
 972,
*Nset, nset=m_Set-98, instance=harmer-1
 972,
*Nset, nset=panel, instance=Part-8-2
    1,    2,    3,    4,    5,    6,    7,    8,    9,   10,   11,   12,   13,   14,   15,   16
   18,   19,   20,   22,   23,   24,   25,   27,   28,   29,   30,   32,   53,   54,   55,   56
   57,   58,   59,   65,   66,   67,   68,   69,   70,   71,   72,   73,   74,   75,   76,   77
   78,   84,   85,   86,   87,   88,   89,   90,   91,   92,   93,   94,   95,   96,   97,  103
  104,  105,  106,  107,  108,  109,  110,  111,  112,  113,  114,  115,  116,  122,  123,  124
  125,  126,  127,  128,  129,  130,  131,  132,  133,  134,  135,  143,  144,  145,  146,  147
  148,  149,  157,  158,  159,  160,  161,  162,  163,  168,  169,  170,  171,  172,  173,  174
  175,  176,  177,  178,  179,  180,  181,  182,  183,  184,  185,  186,  187,  188,  189,  190
  191,  192,  193,  194,  195,  196,  197,  198,  199,  200,  201,  202,  203,  204,  205,  206
  207,  208,  209,  210,  211,  212,  213,  214,  215,  216,  217,  218,  219,  220,  221,  222
  223,  224,  225,  226,  227,  228,  229,  230,  231,  232,  233,  234,  235,  236,  237,  238
  239,  240,  241,  242,  243,  244,  245,  246,  247,  248,  249,  250,  251,  252,  253,  254
  255,  256,  257,  258,  259,  260,  261,  262,  263,  264,  265,  266,  267,  268,  269,  270
  271,  272,  273,  274,  275,  276,  277,  278,  279,  280,  281,  282,  283,  284,  285,  286
  287,  288,  289,  290,  291,  292,  293,  294,  295,  296,  297,  298,  299,  300,  301,  302
  303,  304,  305,  306,  307,  308,  309,  310,  311,  312,  313,  314,  315,  316,  317,  318
  319,  320,  321,  322,  323,  324,  325,  326,  327,  328,  329,  330,  331,  332,  333,  334
  335,  336,  337,  338,  339,  340,  341,  342,  343,  344,  345,  346,  347,  348,  349,  350
  351,  352,  353,  354,  355,  356,  357,  358,  359,  360,  361,  362,  363,  364,  365,  366
  367,  368,  369,  370,  371,  372,  373,  374,  375,  376,  377,  378,  379,  380,  381,  382
** ... 422 like lines cut
*Elset, elset=panel, instance=Part-8-2
  343,  344,  345,  346,  347,  348,  349,  350,  351,  352,  353,  354,  355,  356,  357,  358
  359,  360,  361,  362,  363,  364,  365,  366,  367,  368,  369,  370,  371,  372,  373,  374
  375,  376,  377,  378,  379,  380,  381,  382,  383,  384,  385,  386,  387,  388,  389,  390
  391,  392,  393,  394,  395,  396,  397,  398,  399,  400,  401,  402,  403,  404,  405,  406
  407,  408,  409,  410,  411,  412,  413,  414,  415,  416,  417,  418,  419,  420,  421,  422
  423,  424,  425,  426,  427,  428,  429,  430,  431,  432,  433,  434,  435,  436,  437,  438
  439,  440,  441,  442,  443,  444,  445,  446,  447,  448,  449,  450,  451,  452,  453,  454
  455,  456,  457,  458,  459,  460,  461,  462,  463,  464,  465,  466,  467,  468,  469,  470
  471,  472,  473,  474,  475,  476,  477,  478,  479,  480,  481,  482,  483,  484,  485,  486
  487,  488,  489,  490,  491,  492,  493,  494,  495,  496,  497,  498,  499,  500,  501,  502
  503,  504,  505,  506,  507,  508,  509,  510,  511,  512,  513,  514,  515,  516,  517,  518
  519,  520,  521,  522,  523,  524,  525,  526,  527,  528,  529,  530,  531,  532,  533,  534
  535,  536,  537,  538,  539,  540,  541,  542,  543,  544,  545,  546,  547,  548,  549,  550
  551,  552,  553,  554,  555,  556,  557,  558,  559,  560,  561,  562,  563,  564,  565,  566
  567,  568,  569,  570,  571,  572,  573,  574,  575,  576,  577,  578,  579,  580,  581,  582
  583,  584,  585,  586,  587,  588,  589,  590,  591,  592,  593,  594,  595,  596,  597,  598
  599,  600,  601,  602,  603,  604,  605,  606,  607,  608,  609,  610,  611,  612,  613,  614
  615,  616,  617,  618,  619,  620,  621,  622,  623,  624,  625,  626,  627,  628,  629,  630
  631,  632,  633,  634,  635,  636,  637,  638,  639,  640,  641,  642,  643,  644,  645,  646
  647,  648,  649,  650,  651,  652,  653,  654,  655,  656,  657,  658,  659,  660,  661,  662
** ... 405 like lines cut
*Nset, nset=up, instance=harmer-1
 972,
*Elset, elset=_Surf-5_SPOS, internal, instance=Part-8-2
  343,  344,  345,  346,  347,  348,  349,  350,  351,  352,  353,  354,  355,  356,  357,  358
  359,  360,  361,  362,  363,  364,  365,  366,  367,  368,  369,  370,  371,  372,  373,  374
  375,  376,  377,  378,  379,  380,  381,  382,  383,  384,  385,  386,  387,  388,  389,  390
  391,  392,  393,  394,  395,  396,  397,  398,  399,  400,  401,  402,  403,  404,  405,  406
  407,  408,  409,  410,  411,  412,  413,  414,  415,  416,  417,  418,  419,  420,  421,  422
  423,  424,  425,  426,  427,  428,  429,  430,  431,  432,  433,  434,  435,  436,  437,  438
  439,  440,  441,  442,  443,  444,  445,  446,  447,  448,  449,  450,  451,  452,  453,  454
  455,  456,  457,  458,  459,  460,  461,  462,  463,  464,  465,  466,  467,  468,  469,  470
  471,  472,  473,  474,  475,  476,  477,  478,  479,  480,  481,  482,  483,  484,  485,  486
  487,  488,  489,  490,  491,  492,  493,  494,  495,  496,  497,  498,  499,  500,  501,  502
  503,  504,  505,  506,  507,  508,  509,  510,  511,  512,  513,  514,  515,  516,  517,  518
  519,  520,  521,  522,  523,  524,  525,  526,  527,  528,  529,  530,  531,  532,  533,  534
  535,  536,  537,  538,  539,  540,  541,  542,  543,  544,  545,  546,  547,  548,  549,  550
  551,  552,  553,  554,  555,  556,  557,  558,  559,  560,  561,  562,  563,  564,  565,  566
  567,  568,  569,  570,  571,  572,  573,  574,  575,  576,  577,  578,  579,  580,  581,  582
  583,  584,  585,  586,  587,  588,  589,  590,  591,  592,  593,  594,  595,  596,  597,  598
  599,  600,  601,  602,  603,  604,  605,  606,  607,  608,  609,  610,  611,  612,  613,  614
  615,  616,  617,  618,  619,  620,  621,  622,  623,  624,  625,  626,  627,  628,  629,  630
  631,  632,  633,  634,  635,  636,  637,  638,  639,  640,  641,  642,  643,  644,  645,  646
  647,  648,  649,  650,  651,  652,  653,  654,  655,  656,  657,  658,  659,  660,  661,  662
** ... 405 like lines cut
*Surface, type=ELEMENT, name=Surf-5
_Surf-5_SPOS, SPOS
*Elset, elset=_s_Surf-4_SPOS, internal, instance=Part-8-2, generate
  1,  36,   1
*Surface, type=ELEMENT, name=s_Surf-4
_s_Surf-4_SPOS, SPOS
*Rigid Body, ref node=harmer-1.harmer-RefPt_, elset=harmer-1.harmer
** Constraint: Constraint-9
*Coupling, constraint name=Constraint-9, ref node=m_Set-98, surface=s_Surf-4
*Kinematic
3, 3
*End Assembly
*Amplitude, name=Amp-1, definition=SMOOTH STEP
             0.,             25.,             0.1,             55.
*Amplitude, name=Amp-2, definition=SMOOTH STEP
             0.,              0.,             0.5,              1.
*Amplitude, name=Amp-3
             0.,             25.,             0.5,             65.
*Amplitude, name=Amp-4
             0.,              0.,             0.1,              1.,             0.3,              0.
*Amplitude, name=Amp-5, definition=SMOOTH STEP
             0.,              0.,             0.5,              1.
** 
** MATERIALS
** 
*Material, name=PLA
*Density
 1.25e-09,
*Elastic, type=LAMINA
 8.26, 6.608,  0.45,  0.79,  0.79,  0.79
*Expansion, type=ORTHO
 -0.00144675, 0.00017025,         0.
** 
** INTERACTION PROPERTIES
** 
*Surface Interaction, name=IntProp-1
*Friction
 0.3,
*Surface Behavior, pressure-overclosure=HARD
** 
** BOUNDARY CONDITIONS
** 
** Name: BC-11 Type: Displacement/Rotation
*Boundary
Set-99, 4, 4
Set-99, 5, 5
Set-99, 6, 6
** Name: BC-13 Type: Displacement/Rotation
*Boundary
Set-100, 1, 1
Set-100, 2, 2
Set-100, 3, 3
** Name: BC-14 Type: Displacement/Rotation
*Boundary
Set-101, 2, 2
Set-101, 3, 3
** Name: BC-15 Type: Displacement/Rotation
*Boundary
Set-102, 1, 1
Set-102, 3, 3
** Name: BC-16 Type: Displacement/Rotation
*Boundary
Set-103, 3, 3
** 
** PREDEFINED FIELDS
** 
** Name: Predefined Field-7   Type: Temperature
*Initial Conditions, type=TEMPERATURE
Set-104, 25.
** ----------------------------------------------------------------
** 
** STEP: Step-1
** 
*Step, name=Step-1, nlgeom=YES
*Dynamic, Explicit
, 0.5
*Bulk Viscosity
0.06, 1.2
** 
** PREDEFINED FIELDS
** 
** Name: Predefined Field-7   Type: Temperature
*Temperature, amplitude=Amp-3
Set-104, 1.
** 
** INTERACTIONS
** 
** Interaction: Int-2
*Contact, op=NEW
*Contact Inclusions, ALL EXTERIOR
*Contact Property Assignment
 ,  , IntProp-1
** 
** OUTPUT REQUESTS
** 
*Restart, write, number interval=1, time marks=NO
** 
** FIELD OUTPUT: F-Output-1
** 
*Output, field, variable=PRESELECT, number interval=100
** 
** HISTORY OUTPUT: H-Output-1
** 
*Output, history, variable=PRESELECT
** 
** HISTORY OUTPUT: H-Output-3
** 
*Output, history, time interval=0.00025
*Energy Output, elset=panel
ALLIE, ALLSE
*End Step
** ----------------------------------------------------------------
** 
** STEP: Step-2
** 
*Step, name=Step-2, nlgeom=YES
*Dynamic, Explicit
, 0.5
*Bulk Viscosity
0.06, 1.2
** 
** BOUNDARY CONDITIONS
** 
** Name: BC-11 Type: Displacement/Rotation
*Boundary, amplitude=Amp-5
Set-99, 3, 3, 2.
Set-99, 4, 4
Set-99, 5, 5
Set-99, 6, 6
** 
** OUTPUT REQUESTS
** 
*Restart, write, number interval=1, time marks=NO
** 
** FIELD OUTPUT: F-Output-1
** 
*Output, field, variable=PRESELECT, number interval=100
** 
** HISTORY OUTPUT: H-Output-1
** 
*Output, history, variable=PRESELECT
** 
** HISTORY OUTPUT: H-Output-2
** 
*Output, history, time interval=0.00025
*Node Output, nset=load
RF3, U3
** 
** HISTORY OUTPUT: H-Output-3
** 
*Energy Output, elset=panel
ALLIE, ALLSE
*End Step
