*Heading
** Job name: Unit_80_bistable-11-9 Model name: Unit-80_bistable
** Generated by: Abaqus/CAE 6.14-4
*Preprint, echo=NO, model=NO, history=NO, contact=NO
**
** PARTS
**
*Part, name=Part-10
*Node
      1,           0., -0.622289181,           0.
      2, -0.522163153,  -2.56787924e-11,           0.
      3,  -1.59199357,  -1.27497303,           0.
      4, -0.979158342,  -1.78920341,           0.
      5,  0.522163153,  -2.56805688e-11,           0.
      6,  0.979158342,  -1.78920341,           0.
      7,   1.59199357,  -1.27497303,           0.
      8,           0.,  0.622289181,           0.
      9,   1.59199357,   1.27497303,           0.
     10,  0.979158342,   1.78920341,           0.
     11, -0.979158342,   1.78920341,           0.
     12,  -1.59199357,   1.27497303,           0.
     13,           0.,  -8.3564089e-10,           0.
     14,  -7.32819986,  -8.35639113e-10,           0.
     15,  -6.29973936,   6.88544035,           0.
     16,  -6.34904146,    6.9441967,           0.
     17,  -7.32819986,   8.11111069,           0.
     18,   7.32819986,  -8.35642666e-10,           0.
     19,   7.32819986,   8.11111069,           0.
     20,   6.34904146,    6.9441967,           0.
** ... 7266 like lines cut
*Element, type=S4R
 1,    1,   40,  966,   63
 2,   40,   41,  967,  966
 3,   41,   42,  968,  967
 4,   42,   43,  969,  968
 5,   43,   44,  970,  969
 6,   44,    2,   45,  970
 7,   63,  966,  971,   62
 8,  966,  967,  972,  971
 9,  967,  968,  973,  972
10,  968,  969,  974,  973
11,  969,  970,  975,  974
12,  970,   45,   46,  975
13,   62,  971,  976,   61
14,  971,  972,  977,  976
15,  972,  973,  978,  977
16,  973,  974,  979,  978
17,  974,  975,  980,  979
18,  975,   46,   47,  980
19,   61,  976,  981,   60
20,  976,  977,  982,  981
** ... 6858 like lines cut
*Element, type=S3
208, 1696, 1651, 1209
209, 1646, 1867, 1628
210, 1862, 1636, 1568
211, 1756, 1882, 1748
212, 1780, 1277, 1365
213, 1526, 1415, 1452
214, 1472, 1160, 1471
215, 1561, 1528, 1147
216, 1822, 1179, 1532
217, 1579, 1528, 1540
218, 1551, 1827, 1132
219, 1587, 1565, 1200
220, 1869, 1149, 1621
221, 1751, 1732, 1742
222, 1745, 1162, 1685
223, 1880, 1771, 1187
224, 1778, 1777, 1776
225, 1809, 1698, 1722
226, 1851, 1536, 1842
227, 1536, 1851, 1231
** ... 132 like lines cut
*Nset, nset=Set-1
    1,    2,    3,    4,    5,    6,    7,    8,    9,   10,   11,   12,   14,   15,   16,   17
   18,   19,   20,   21,   22,   23,   24,   25,   26,   27,   28,   29,   30,   32,   34,   35
   37,   38,   45,   46,   47,   48,   49,   50,   51,   57,   58,   59,   60,   61,   62,   63
   69,   70,   71,   72,   73,   74,   75,   81,   82,   83,   84,   85,   86,   87,   93,   94
   95,   96,   97,   98,   99,  105,  106,  107,  108,  109,  110,  111,  117,  118,  119,  120
  121,  122,  123,  129,  130,  131,  132,  133,  134,  135,  142,  143,  144,  145,  146,  147
  148,  149,  150,  151,  152,  153,  154,  155,  156,  157,  158,  159,  160,  161,  162,  163
  164,  165,  166,  167,  168,  169,  170,  171,  172,  173,  174,  175,  176,  177,  178,  179
  180,  181,  182,  183,  184,  185,  186,  187,  188,  189,  190,  191,  192,  193,  194,  195
  196,  197,  198,  199,  200,  201,  202,  203,  204,  205,  206,  207,  208,  209,  210,  211
  212,  213,  214,  215,  216,  217,  218,  219,  220,  221,  222,  223,  224,  225,  226,  227
  228,  229,  230,  231,  232,  233,  234,  235,  236,  237,  238,  239,  240,  241,  242,  243
  244,  245,  246,  247,  248,  249,  250,  251,  252,  253,  254,  255,  256,  257,  261,  262
  263,  264,  265,  266,  267,  268,  269,  270,  271,  272,  273,  274,  275,  276,  277,  278
  279,  280,  281,  282,  283,  284,  285,  286,  287,  288,  289,  290,  291,  292,  293,  294
  295,  296,  297,  298,  299,  300,  301,  302,  303,  304,  305,  306,  307,  308,  309,  310
  311,  312,  313,  314,  315,  316,  317,  318,  319,  320,  321,  322,  323,  324,  325,  326
  327,  328,  329,  330,  331,  332,  333,  334,  335,  336,  337,  338,  339,  340,  341,  342
  343,  344,  345,  346,  347,  348,  349,  350,  351,  352,  353,  354,  355,  356,  357,  358
  359,  360,  361,  362,  363,  364,  365,  366,  367,  368,  369,  370,  371,  372,  373,  374
** ... 408 like lines cut
*Elset, elset=Set-1
  208,  209,  210,  211,  212,  213,  214,  215,  216,  217,  218,  219,  220,  221,  222,  223
  224,  225,  226,  227,  228,  229,  230,  231,  232,  233,  234,  235,  236,  237,  238,  239
  240,  241,  242,  243,  244,  245,  246,  247,  248,  249,  250,  251,  252,  253,  254,  255
  256,  257,  258,  259,  260,  261,  262,  263,  264,  265,  266,  267,  268,  269,  270,  271
  272,  273,  274,  275,  276,  277,  278,  279,  280,  281,  282,  283,  284,  285,  286,  287
  288,  289,  290,  291,  292,  293,  294,  295,  296,  297,  298,  299,  300,  301,  302,  303
  304,  305,  306,  307,  308,  309,  310,  311,  312,  313,  314,  315,  316,  317,  318,  319
  320,  321,  322,  323,  324,  325,  326,  327,  328,  329,  330,  331,  332,  333,  334,  335
  336,  337,  338,  339,  340,  341,  342,  343,  344,  345,  346,  347,  348,  349,  350,  351
  352,  353,  354,  355,  356,  357,  358,  359,  360,  361,  362,  363,  364,  365,  366,  367
  368,  369,  370,  371,  372,  373,  374,  375,  376,  377,  378,  379,  380,  381,  382,  383
  384,  385,  386,  387,  388,  389,  390,  391,  392,  393,  394,  395,  396,  397,  398,  399
  400,  401,  402,  403,  404,  405,  406,  407,  408,  409,  410,  411,  412,  413,  414,  415
  416,  417,  418,  419,  420,  421,  422,  423,  424,  425,  426,  427,  428,  429,  430,  431
  432,  433,  434,  435,  436,  437,  438,  439,  440,  441,  442,  443,  444,  445,  446,  447
  448,  449,  450,  451,  452,  453,  454,  455,  456,  457,  458,  459,  460,  461,  462,  463
  464,  465,  466,  467,  468,  469,  470,  471,  472,  473,  474,  475,  476,  477,  478,  479
  480,  481,  482,  483,  484,  485,  486,  487,  488,  489,  490,  491,  492,  493,  494,  495
  496,  497,  498,  499,  500,  501,  502,  503,  504,  505,  506,  507,  508,  509,  510,  511
  512,  513,  514,  515,  516,  517,  518,  519,  520,  521,  522,  523,  524,  525,  526,  527
** ... 390 like lines cut
*Nset, nset=Set-2
    1,    2,    3,    4,    5,    6,    7,    8,    9,   10,   11,   12,   13,   16,   17,   19
   20,   23,   24,   26,   27,   28,   29,   30,   31,   32,   33,   34,   35,   36,   37,   38
   39,   40,   41,   42,   43,   44,   45,   46,   47,   48,   49,   50,   51,   52,   53,   54
   55,   56,   57,   58,   59,   60,   61,   62,   63,   64,   65,   66,   67,   68,   69,   70
   71,   72,   73,   74,   75,   76,   77,   78,   79,   80,   81,   82,   83,   84,   85,   86
   87,   88,   89,   90,   91,   92,   93,   94,   95,   96,   97,   98,   99,  100,  101,  102
  103,  104,  105,  106,  107,  108,  109,  110,  111,  112,  113,  114,  115,  116,  117,  118
  119,  120,  121,  122,  123,  124,  125,  126,  127,  128,  129,  130,  131,  132,  133,  134
  135,  136,  137,  138,  139,  140,  141,  211,  212,  213,  214,  215,  216,  217,  258,  259
  260,  334,  335,  336,  337,  338,  339,  340,  453,  454,  455,  456,  457,  458,  459,  493
  494,  495,  572,  573,  574,  575,  576,  577,  578,  612,  613,  614,  615,  616,  617,  618
  619,  620,  621,  622,  623,  624,  625,  626,  627,  628,  629,  630,  631,  632,  633,  634
  635,  636,  637,  638,  639,  640,  641,  642,  643,  789,  790,  791,  792,  793,  794,  795
  796,  797,  798,  799,  800,  801,  802,  803,  804,  838,  839,  840,  841,  842,  843,  844
  957,  958,  959,  960,  961,  962,  963,  964,  965,  966,  967,  968,  969,  970,  971,  972
  973,  974,  975,  976,  977,  978,  979,  980,  981,  982,  983,  984,  985,  986,  987,  988
  989,  990,  991,  992,  993,  994,  995,  996,  997,  998,  999, 1000, 1001, 1002, 1003, 1004
 1005, 1006, 1007, 1008, 1009, 1010, 1011, 1012, 1013, 1014, 1015, 1016, 1017, 1018, 1019, 1020
 1021, 1022, 1023, 1024, 1025, 1026, 1027, 1028, 1029, 1030, 1031, 1032, 1033, 1034, 1035, 1036
 1037, 1038, 1039, 1040, 1041, 1042, 1043, 1044, 1045, 1046, 1047, 1048, 1049, 1050, 1051, 1052
** ... 17 like lines cut
*Elset, elset=Set-2
    1,    2,    3,    4,    5,    6,    7,    8,    9,   10,   11,   12,   13,   14,   15,   16
   17,   18,   19,   20,   21,   22,   23,   24,   25,   26,   27,   28,   29,   30,   31,   32
   33,   34,   35,   36,   37,   38,   39,   40,   41,   42,   43,   44,   45,   46,   47,   48
   49,   50,   51,   52,   53,   54,   55,   56,   57,   58,   59,   60,   61,   62,   63,   64
   65,   66,   67,   68,   69,   70,   71,   72,   73,   74,   75,   76,   77,   78,   79,   80
   81,   82,   83,   84,   85,   86,   87,   88,   89,   90,   91,   92,   93,   94,   95,   96
   97,   98,   99,  100,  101,  102,  103,  104,  105,  106,  107,  108,  109,  110,  111,  112
  113,  114,  115,  116,  117,  118,  119,  120,  121,  122,  123,  124,  125,  126,  127,  128
  129,  130,  131,  132,  133,  134,  135,  136,  137,  138,  139,  140,  141,  142,  143,  144
  145,  146,  147,  148,  149,  150,  151,  152,  153,  154,  155,  156,  157,  158,  159,  160
  161,  162,  163,  164,  165,  166,  167,  168,  169,  170,  171,  172,  173,  174,  175,  176
  177,  178,  179,  180,  181,  182,  183,  184,  185,  186,  187,  188,  189,  190,  191,  192
  193,  194,  195,  196,  197,  198,  199,  200,  201,  202,  203,  204,  205,  206,  207, 1056
 1057, 1058, 1059, 1060, 1061, 1062, 1063, 1064, 1065, 1066, 1067, 1068, 1069, 1070, 2702, 2703
 2704, 2705, 2706, 2707, 2708, 2709, 2710, 2711, 2712, 2713, 2714, 2715, 2716, 3552, 3553, 3554
 3555, 3556, 3557, 3558, 3559, 3560, 3561, 3562, 3563, 3564, 3565, 3566, 3567, 3568, 3569, 3570
 3571, 3572, 3573, 3574, 3575, 3576, 3577, 3578, 3579, 3580, 3581, 3582, 3583, 3584, 3585, 3586
 3587, 3588, 3589, 3590, 3591, 3592, 3593, 3594, 3595, 3596, 3597, 3598, 3599, 3600, 3601, 3602
 3603, 3604, 3605, 3606, 3607, 3608, 3609, 3610, 3611, 3612, 3613, 3614, 3615, 3616, 3617, 3618
 3619, 3620, 3621, 3622, 3623, 3624, 3625, 3626, 3627, 3628, 3629, 3630, 3631, 3632, 3633, 3634
** ... 10 like lines cut
** Section: Section-2
*Shell Section, elset=Set-2, material=PLA
0.4, 5
** Section: Section-1
*Shell Section, elset=Set-1, composite
1.1, 3, PLA, 0., P1
0.9, 3, PLA, 90., P2
*End Part
**  
*Part, name=harrmer3
*Node
      1,          0.5,           0.,           0.
      2,          0.5,          2.5,           0.
      3,           0.,         -0.5,           0.
      4,  0.489764959,           0.,   0.10064926
      5,  0.459478915,           0.,  0.197177932
      6,  0.410381734,           0.,    0.2856341
      7,  0.344483465,           0.,  0.362396389
      8,  0.264481992,           0.,  0.424322128
      9,  0.173652619,           0.,  0.468876064
     10, 0.0757138878,           0.,  0.494234174
     11, -0.0253245849,           0.,  0.499358267
     12, -0.125326261,           0.,  0.484038562
     13, -0.220197082,           0.,  0.448902279
     14, -0.306052983,           0.,  0.395387858
     15, -0.379379064,           0.,  0.325686246
     16, -0.437173307,           0.,  0.242650986
     17, -0.477069616,           0.,  0.149681568
     18, -0.497434676,           0., 0.0505841598
     19, -0.497434676,           0., -0.0505841598
     20, -0.477069616,           0., -0.149681568
** ... 952 like lines cut
*Element, type=R3D4
  1,   1,  33,  95,  34
  2,  33,  32,  96,  95
  3,  32,  31,  97,  96
  4,  31,  30,  98,  97
  5,  30,  29,  99,  98
  6,  29,  28, 100,  99
  7,  28,  27, 101, 100
  8,  27,  26, 102, 101
  9,  26,  25, 103, 102
 10,  25,  24, 104, 103
 11,  24,  23, 105, 104
 12,  23,  22, 106, 105
 13,  22,  21, 107, 106
 14,  21,  20, 108, 107
 15,  20,  19, 109, 108
 16,  19,  18, 110, 109
 17,  18,  17, 111, 110
 18,  17,  16, 112, 111
 19,  16,  15, 113, 112
 20,  15,  14, 114, 113
** ... 933 like lines cut
*Element, type=R3D3
776, 895, 894, 914
777, 827, 825, 824
778, 840, 855, 841
779, 892, 904, 893
780, 958, 968, 926
*Node
    973,  -1.86820528e-15,         -0.5,           0.
*Nset, nset=harrmer3-RefPt_, internal
973, 
*Nset, nset=Set-1
 973,
*Elset, elset=harrmer3, generate
   1,  958,    1
*Element, type=MASS, elset=Set-1_Inertia-1_MASS_
959, 973
*Mass, elset=Set-1_Inertia-1_MASS_
1e-11, 
*Element, type=ROTARYI, elset=Set-1_Inertia-1_ROTI_
960, 973
*Rotary Inertia, elset=Set-1_Inertia-1_ROTI_
1e-11, 1e-11, 1e-11, 0., 0., 0.
*End Part
**  
**
** ASSEMBLY
**
*Assembly, name=Assembly
**  
*Instance, name=Part-10-4, part=Part-10
*End Instance
**  
*Instance, name=harrmer3-1, part=harrmer3
          0.,  -6.12323399573677e-17,         -0.5
          0.,  -6.12323399573677e-17,         -0.5,          -1.,  -6.12323399573677e-17,         -0.5,          90.
*End Instance
**  
*Nset, nset=Set-91, instance=harrmer3-1
 973,
*Nset, nset=Set-92, instance=Part-10-4
 39,
*Nset, nset=Set-93, instance=Part-10-4
 33,
*Nset, nset=Set-94, instance=Part-10-4
 36,
*Nset, nset=Set-95, instance=Part-10-4
 31,
*Nset, nset=Set-96, instance=Part-10-4, generate
    1,  7286,     1
*Elset, elset=Set-96, instance=Part-10-4, generate
    1,  7030,     1
*Nset, nset=load, instance=harrmer3-1
 973,
*Nset, nset=m_Set-90, instance=harrmer3-1
 973,
*Nset, nset=panel, instance=Part-10-4
    1,    2,    3,    4,    5,    6,    7,    8,    9,   10,   11,   12,   14,   15,   16,   17
   18,   19,   20,   21,   22,   23,   24,   25,   26,   27,   28,   29,   30,   32,   34,   35
   37,   38,   45,   46,   47,   48,   49,   50,   51,   57,   58,   59,   60,   61,   62,   63
   69,   70,   71,   72,   73,   74,   75,   81,   82,   83,   84,   85,   86,   87,   93,   94
   95,   96,   97,   98,   99,  105,  106,  107,  108,  109,  110,  111,  117,  118,  119,  120
  121,  122,  123,  129,  130,  131,  132,  133,  134,  135,  142,  143,  144,  145,  146,  147
  148,  149,  150,  151,  152,  153,  154,  155,  156,  157,  158,  159,  160,  161,  162,  163
  164,  165,  166,  167,  168,  169,  170,  171,  172,  173,  174,  175,  176,  177,  178,  179
  180,  181,  182,  183,  184,  185,  186,  187,  188,  189,  190,  191,  192,  193,  194,  195
  196,  197,  198,  199,  200,  201,  202,  203,  204,  205,  206,  207,  208,  209,  210,  211
  212,  213,  214,  215,  216,  217,  218,  219,  220,  221,  222,  223,  224,  225,  226,  227
  228,  229,  230,  231,  232,  233,  234,  235,  236,  237,  238,  239,  240,  241,  242,  243
  244,  245,  246,  247,  248,  249,  250,  251,  252,  253,  254,  255,  256,  257,  261,  262
  263,  264,  265,  266,  267,  268,  269,  270,  271,  272,  273,  274,  275,  276,  277,  278
  279,  280,  281,  282,  283,  284,  285,  286,  287,  288,  289,  290,  291,  292,  293,  294
  295,  296,  297,  298,  299,  300,  301,  302,  303,  304,  305,  306,  307,  308,  309,  310
  311,  312,  313,  314,  315,  316,  317,  318,  319,  320,  321,  322,  323,  324,  325,  326
  327,  328,  329,  330,  331,  332,  333,  334,  335,  336,  337,  338,  339,  340,  341,  342
  343,  344,  345,  346,  347,  348,  349,  350,  351,  352,  353,  354,  355,  356,  357,  358
  359,  360,  361,  362,  363,  364,  365,  366,  367,  368,  369,  370,  371,  372,  373,  374
** ... 408 like lines cut
*Elset, elset=panel, instance=Part-10-4
  208,  209,  210,  211,  212,  213,  214,  215,  216,  217,  218,  219,  220,  221,  222,  223
  224,  225,  226,  227,  228,  229,  230,  231,  232,  233,  234,  235,  236,  237,  238,  239
  240,  241,  242,  243,  244,  245,  246,  247,  248,  249,  250,  251,  252,  253,  254,  255
  256,  257,  258,  259,  260,  261,  262,  263,  264,  265,  266,  267,  268,  269,  270,  271
  272,  273,  274,  275,  276,  277,  278,  279,  280,  281,  282,  283,  284,  285,  286,  287
  288,  289,  290,  291,  292,  293,  294,  295,  296,  297,  298,  299,  300,  301,  302,  303
  304,  305,  306,  307,  308,  309,  310,  311,  312,  313,  314,  315,  316,  317,  318,  319
  320,  321,  322,  323,  324,  325,  326,  327,  328,  329,  330,  331,  332,  333,  334,  335
  336,  337,  338,  339,  340,  341,  342,  343,  344,  345,  346,  347,  348,  349,  350,  351
  352,  353,  354,  355,  356,  357,  358,  359,  360,  361,  362,  363,  364,  365,  366,  367
  368,  369,  370,  371,  372,  373,  374,  375,  376,  377,  378,  379,  380,  381,  382,  383
  384,  385,  386,  387,  388,  389,  390,  391,  392,  393,  394,  395,  396,  397,  398,  399
  400,  401,  402,  403,  404,  405,  406,  407,  408,  409,  410,  411,  412,  413,  414,  415
  416,  417,  418,  419,  420,  421,  422,  423,  424,  425,  426,  427,  428,  429,  430,  431
  432,  433,  434,  435,  436,  437,  438,  439,  440,  441,  442,  443,  444,  445,  446,  447
  448,  449,  450,  451,  452,  453,  454,  455,  456,  457,  458,  459,  460,  461,  462,  463
  464,  465,  466,  467,  468,  469,  470,  471,  472,  473,  474,  475,  476,  477,  478,  479
  480,  481,  482,  483,  484,  485,  486,  487,  488,  489,  490,  491,  492,  493,  494,  495
  496,  497,  498,  499,  500,  501,  502,  503,  504,  505,  506,  507,  508,  509,  510,  511
  512,  513,  514,  515,  516,  517,  518,  519,  520,  521,  522,  523,  524,  525,  526,  527
** ... 390 like lines cut
*Elset, elset=_Surf-6_SPOS, internal, instance=Part-10-4
  208,  209,  210,  211,  212,  213,  214,  215,  216,  217,  218,  219,  220,  221,  222,  223
  224,  225,  226,  227,  228,  229,  230,  231,  232,  233,  234,  235,  236,  237,  238,  239
  240,  241,  242,  243,  244,  245,  246,  247,  248,  249,  250,  251,  252,  253,  254,  255
  256,  257,  258,  259,  260,  261,  262,  263,  264,  265,  266,  267,  268,  269,  270,  271
  272,  273,  274,  275,  276,  277,  278,  279,  280,  281,  282,  283,  284,  285,  286,  287
  288,  289,  290,  291,  292,  293,  294,  295,  296,  297,  298,  299,  300,  301,  302,  303
  304,  305,  306,  307,  308,  309,  310,  311,  312,  313,  314,  315,  316,  317,  318,  319
  320,  321,  322,  323,  324,  325,  326,  327,  328,  329,  330,  331,  332,  333,  334,  335
  336,  337,  338,  339,  340,  341,  342,  343,  344,  345,  346,  347,  348,  349,  350,  351
  352,  353,  354,  355,  356,  357,  358,  359,  360,  361,  362,  363,  364,  365,  366,  367
  368,  369,  370,  371,  372,  373,  374,  375,  376,  377,  378,  379,  380,  381,  382,  383
  384,  385,  386,  387,  388,  389,  390,  391,  392,  393,  394,  395,  396,  397,  398,  399
  400,  401,  402,  403,  404,  405,  406,  407,  408,  409,  410,  411,  412,  413,  414,  415
  416,  417,  418,  419,  420,  421,  422,  423,  424,  425,  426,  427,  428,  429,  430,  431
  432,  433,  434,  435,  436,  437,  438,  439,  440,  441,  442,  443,  444,  445,  446,  447
  448,  449,  450,  451,  452,  453,  454,  455,  456,  457,  458,  459,  460,  461,  462,  463
  464,  465,  466,  467,  468,  469,  470,  471,  472,  473,  474,  475,  476,  477,  478,  479
  480,  481,  482,  483,  484,  485,  486,  487,  488,  489,  490,  491,  492,  493,  494,  495
  496,  497,  498,  499,  500,  501,  502,  503,  504,  505,  506,  507,  508,  509,  510,  511
  512,  513,  514,  515,  516,  517,  518,  519,  520,  521,  522,  523,  524,  525,  526,  527
** ... 390 like lines cut
*Surface, type=ELEMENT, name=Surf-6
_Surf-6_SPOS, SPOS
*Elset, elset=_s_Surf-5_SPOS, internal, instance=Part-10-4
  193,  194,  195,  196,  197,  198,  199,  200,  201,  202,  203,  204,  205,  206,  207, 1056
 1057, 1058, 1059, 1060, 1061, 1062, 1063, 1064, 1065, 1066, 1067, 1068, 1069, 1070, 2702, 2703
 2704, 2705, 2706, 2707, 2708, 2709, 2710, 2711, 2712, 2713, 2714, 2715, 2716, 6146, 6147, 6148
 6149, 6150, 6151, 6152, 6153, 6154, 6155, 6156, 6157, 6158, 6159, 6160
*Surface, type=ELEMENT, name=s_Surf-5
_s_Surf-5_SPOS, SPOS
*Rigid Body, ref node=harrmer3-1.harrmer3-RefPt_, elset=harrmer3-1.harrmer3
** Constraint: Constraint-9
*Coupling, constraint name=Constraint-9, ref node=m_Set-90, surface=s_Surf-5
*Kinematic
3, 3
*End Assembly
*Amplitude, name=Amp-1, definition=SMOOTH STEP
             0.,             25.,             0.1,             55.
*Amplitude, name=Amp-2, definition=SMOOTH STEP
             0.,              0.,             0.5,              1.
*Amplitude, name=Amp-3
             0.,             25.,             0.5,             65.
*Amplitude, name=Amp-4
             0.,              0.,             0.1,              1.,             0.3,              0.
*Amplitude, name=Amp-5, definition=SMOOTH STEP
             0.,              0.,             0.5,              1.
** 
** MATERIALS
** 
*Material, name=PLA
*Density
 1.25e-09,
*Elastic, type=LAMINA
 8.26, 6.608,  0.45,  0.79,  0.79,  0.79
*Expansion, type=ORTHO
 -0.00144675, 0.00017025,         0.
** 
** INTERACTION PROPERTIES
** 
*Surface Interaction, name=IntProp-1
*Friction
 0.3,
*Surface Behavior, pressure-overclosure=HARD
** 
** BOUNDARY CONDITIONS
** 
** Name: BC-10 Type: Displacement/Rotation
*Boundary
Set-91, 4, 4
Set-91, 5, 5
Set-91, 6, 6
** Name: BC-11 Type: Displacement/Rotation
*Boundary
Set-92, 1, 1
Set-92, 2, 2
Set-92, 3, 3
** Name: BC-13 Type: Displacement/Rotation
*Boundary
Set-93, 2, 2
Set-93, 3, 3
** Name: BC-14 Type: Displacement/Rotation
*Boundary
Set-94, 1, 1
Set-94, 3, 3
** Name: BC-15 Type: Displacement/Rotation
*Boundary
Set-95, 3, 3
** 
** PREDEFINED FIELDS
** 
** Name: Predefined Field-7   Type: Temperature
*Initial Conditions, type=TEMPERATURE
Set-96, 25.
** ----------------------------------------------------------------
** 
** STEP: Step-1
** 
*Step, name=Step-1, nlgeom=YES
*Dynamic, Explicit
, 0.5
*Bulk Viscosity
0.06, 1.2
** 
** BOUNDARY CONDITIONS
** 
** Name: BC-10 Type: Displacement/Rotation
*Boundary, op=NEW, amplitude=Amp-5
Set-91, 4, 4
Set-91, 5, 5
Set-91, 6, 6
** Name: BC-11 Type: Displacement/Rotation
*Boundary, op=NEW
Set-92, 1, 1
Set-92, 2, 2
Set-92, 3, 3
** Name: BC-13 Type: Displacement/Rotation
*Boundary, op=NEW
Set-93, 2, 2
Set-93, 3, 3
** Name: BC-14 Type: Displacement/Rotation
*Boundary, op=NEW
Set-94, 1, 1
Set-94, 3, 3
** Name: BC-15 Type: Displacement/Rotation
*Boundary, op=NEW
Set-95, 3, 3
** 
** PREDEFINED FIELDS
** 
** Name: Predefined Field-7   Type: Temperature
*Temperature, amplitude=Amp-3
Set-96, 1.
** 
** OUTPUT REQUESTS
** 
*Restart, write, number interval=1, time marks=NO
** 
** FIELD OUTPUT: F-Output-1
** 
*Output, field, variable=PRESELECT, number interval=100
** 
** HISTORY OUTPUT: H-Output-3
** 
*Output, history, time interval=0.00025
*Energy Output, elset=panel
ALLIE, ALLSE
** 
** HISTORY OUTPUT: H-Output-1
** 
*Output, history, variable=PRESELECT, time interval=0.00025
*End Step
** ----------------------------------------------------------------
** 
** STEP: Step-2
** 
*Step, name=Step-2, nlgeom=YES
*Dynamic, Explicit
, 0.5
*Bulk Viscosity
0.06, 1.2
** 
** BOUNDARY CONDITIONS
** 
** Name: BC-10 Type: Displacement/Rotation
*Boundary, amplitude=Amp-5
Set-91, 3, 3, 2.
** 
** INTERACTIONS
** 
** Interaction: Int-3
*Contact, op=NEW
*Contact Inclusions, ALL EXTERIOR
*Contact Property Assignment
 ,  , IntProp-1
** 
** OUTPUT REQUESTS
** 
*Restart, write, number interval=1, time marks=NO
** 
** FIELD OUTPUT: F-Output-1
** 
*Output, field, variable=PRESELECT, number interval=100
** 
** HISTORY OUTPUT: H-Output-2
** 
*Output, history, time interval=0.00025
*Node Output, nset=load
RF3, U3
** 
** HISTORY OUTPUT: H-Output-3
** 
*Energy Output, elset=panel
ALLIE, ALLSE
** 
** HISTORY OUTPUT: H-Output-1
** 
*Output, history, variable=PRESELECT, time interval=0.00025
*End Step
