*Heading
** Job name: Unit_70_bistable-16-4 Model name: Unit_70-bistable
** Generated by: Abaqus/CAE 6.14-4
*Preprint, echo=NO, model=NO, history=NO, contact=NO
**
** PARTS
**
*Part, name=Part-10
*Node
      1,           0.,  0.697379708,           0.
      2,  0.488309503,           0.,           0.
      3,   1.47481227,   1.40887499,           0.
      4,  0.819490194,   1.86773551,           0.
      5,           0., -0.697379708,           0.
      6, -0.488309503,           0.,           0.
      7,  -1.47481227,  -1.40887499,           0.
      8, -0.819490194,  -1.86773551,           0.
      9, -0.819490194,   1.86773551,           0.
     10,  -1.47481227,   1.40887499,           0.
     11,  0.819490194,  -1.86773551,           0.
     12,   1.47481227,  -1.40887499,           0.
     13,           0.,           0.,           0.
     14,           0.,  -9.56040001,           0.
     15,   -5.2194376,   -8.1515255,           0.
     16,  -6.20594072,  -9.56040001,           0.
     17,           0.,   9.56040001,           0.
     18,    5.2194376,    8.1515255,           0.
     19,   6.20594072,   9.56040001,           0.
     20,   6.69425011,           0.,           0.
** ... 7331 like lines cut
*Element, type=S4R
 1,    1,   38,  972,   59
 2,   38,   39,  973,  972
 3,   39,   40,  974,  973
 4,   40,   41,  975,  974
 5,   41,   42,  976,  975
 6,   42,    2,   43,  976
 7,   59,  972,  977,   58
 8,  972,  973,  978,  977
 9,  973,  974,  979,  978
10,  974,  975,  980,  979
11,  975,  976,  981,  980
12,  976,   43,   44,  981
13,   58,  977,  982,   57
14,  977,  978,  983,  982
15,  978,  979,  984,  983
16,  979,  980,  985,  984
17,  980,  981,  986,  985
18,  981,   44,   45,  986
19,   57,  982,  987,   56
20,  982,  983,  988,  987
** ... 6901 like lines cut
*Element, type=S3
238, 1471, 1231, 1530
239, 1447, 1804, 1268
240, 1729, 1733, 1193
241, 1513, 1492, 1494
242, 1726, 1740, 1212
243, 1721, 1695, 1243
244, 1438, 1365, 1208
245, 1473, 1450, 1411
246, 1792, 1461, 1484
247, 1491, 1164, 1373
248, 1547, 1591, 1858
249, 1828, 1238, 1770
250, 1873, 1638, 1590
251, 1243, 1854, 1675
252, 1766, 1220, 1631
253, 1712, 1690, 1182
254, 1717, 1715, 1700
255, 1685, 1825, 1753
256, 1805, 1444, 1265
257, 1827, 1186, 1584
** ... 170 like lines cut
*Nset, nset=Set-1
    1,    2,    3,    4,    5,    6,    7,    8,    9,   10,   11,   12,   14,   15,   16,   17
   18,   19,   20,   21,   22,   23,   24,   25,   26,   27,   29,   30,   32,   33,   35,   36
   43,   44,   45,   46,   47,   48,   54,   55,   56,   57,   58,   59,   65,   66,   67,   68
   69,   70,   76,   77,   78,   79,   80,   81,   87,   88,   89,   90,   91,   92,   93,   94
  100,  101,  102,  103,  104,  105,  106,  107,  113,  114,  115,  116,  117,  118,  119,  120
  126,  127,  128,  129,  130,  131,  132,  133,  146,  147,  148,  149,  150,  151,  152,  153
  154,  155,  156,  157,  158,  159,  160,  161,  162,  163,  164,  165,  166,  167,  168,  169
  170,  171,  172,  173,  174,  175,  176,  177,  178,  179,  180,  181,  182,  183,  184,  185
  186,  187,  188,  189,  190,  191,  192,  193,  194,  195,  196,  197,  198,  199,  200,  201
  202,  203,  204,  205,  206,  207,  208,  209,  210,  211,  212,  213,  214,  215,  216,  217
  218,  219,  220,  221,  222,  223,  224,  225,  226,  227,  228,  229,  230,  231,  232,  233
  234,  235,  236,  237,  238,  239,  240,  241,  242,  243,  244,  245,  246,  247,  248,  249
  250,  251,  252,  253,  254,  255,  256,  257,  258,  259,  260,  261,  262,  263,  264,  265
  266,  267,  268,  269,  270,  271,  272,  273,  274,  275,  276,  277,  278,  279,  280,  281
  282,  283,  284,  285,  286,  287,  288,  289,  290,  291,  292,  293,  294,  295,  296,  297
  298,  299,  300,  301,  302,  303,  304,  305,  306,  307,  308,  309,  310,  311,  312,  313
  314,  315,  316,  317,  318,  319,  320,  321,  322,  323,  324,  325,  326,  327,  328,  329
  330,  331,  332,  333,  334,  335,  336,  337,  338,  339,  340,  341,  342,  343,  344,  345
  346,  347,  348,  349,  350,  351,  352,  353,  354,  355,  356,  357,  358,  359,  360,  361
  362,  363,  364,  365,  366,  367,  368,  369,  370,  371,  372,  373,  374,  375,  376,  377
** ... 412 like lines cut
*Elset, elset=Set-1
  238,  239,  240,  241,  242,  243,  244,  245,  246,  247,  248,  249,  250,  251,  252,  253
  254,  255,  256,  257,  258,  259,  260,  261,  262,  263,  264,  265,  266,  267,  268,  269
  270,  271,  272,  273,  274,  275,  276,  277,  278,  279,  280,  281,  282,  283,  284,  285
  286,  287,  288,  289,  290,  291,  292,  293,  294,  295,  296,  297,  298,  299,  300,  301
  302,  303,  304,  305,  306,  307,  308,  309,  310,  311,  312,  313,  314,  315,  316,  317
  318,  319,  320,  321,  322,  323,  324,  325,  326,  327,  328,  329,  330,  331,  332,  333
  334,  335,  336,  337,  338,  339,  340,  341,  342,  343,  344,  345,  346,  347,  348,  349
  350,  351,  352,  353,  354,  355,  356,  357,  358,  359,  360,  361,  362,  363,  364,  365
  366,  367,  368,  369,  370,  371,  372,  373,  374,  375,  376,  377,  378,  379,  380,  381
  382,  383,  384,  385,  386,  387,  388,  389,  390,  391,  392,  393,  394,  395,  396,  397
  398,  399,  400,  401,  402,  403,  404,  405,  406,  407,  408,  409,  410,  411,  412,  413
  414,  415,  416,  417,  418,  419,  420,  421,  422,  423,  424,  425,  426,  427,  428,  429
  430,  431,  432,  433,  434,  435,  436,  437,  438,  439,  440,  441,  442,  443,  444,  445
  446,  447,  448,  449,  450,  451,  452,  453,  454,  455,  456,  457,  458,  459,  460,  461
  462,  463,  464,  465,  466,  467,  468,  469,  470,  471,  472,  473,  474,  475,  476,  477
  478,  479,  480,  481,  482,  483,  484,  485,  486,  487,  488,  489,  490,  491,  492,  493
  494,  495,  496,  497,  498,  499,  500,  501,  502,  503,  504,  505,  506,  507,  508,  509
  510,  511,  512,  513,  514,  515,  516,  517,  518,  519,  520,  521,  522,  523,  524,  525
  526,  527,  528,  529,  530,  531,  532,  533,  534,  535,  536,  537,  538,  539,  540,  541
  542,  543,  544,  545,  546,  547,  548,  549,  550,  551,  552,  553,  554,  555,  556,  557
** ... 395 like lines cut
*Nset, nset=Set-2
    1,    2,    3,    4,    5,    6,    7,    8,    9,   10,   11,   12,   13,   15,   16,   18
   19,   21,   22,   24,   25,   26,   27,   28,   29,   30,   31,   32,   33,   34,   35,   36
   37,   38,   39,   40,   41,   42,   43,   44,   45,   46,   47,   48,   49,   50,   51,   52
   53,   54,   55,   56,   57,   58,   59,   60,   61,   62,   63,   64,   65,   66,   67,   68
   69,   70,   71,   72,   73,   74,   75,   76,   77,   78,   79,   80,   81,   82,   83,   84
   85,   86,   87,   88,   89,   90,   91,   92,   93,   94,   95,   96,   97,   98,   99,  100
  101,  102,  103,  104,  105,  106,  107,  108,  109,  110,  111,  112,  113,  114,  115,  116
  117,  118,  119,  120,  121,  122,  123,  124,  125,  126,  127,  128,  129,  130,  131,  132
  133,  134,  135,  136,  137,  138,  139,  140,  141,  142,  143,  144,  145,  226,  227,  228
  229,  230,  231,  232,  233,  344,  345,  346,  347,  348,  349,  350,  351,  449,  450,  451
  452,  453,  454,  565,  566,  567,  568,  569,  570,  614,  615,  616,  617,  618,  619,  620
  621,  622,  623,  624,  625,  626,  627,  628,  629,  630,  631,  632,  633,  634,  635,  636
  637,  638,  639,  640,  641,  642,  643,  644,  645,  793,  794,  795,  796,  797,  798,  799
  800,  801,  802,  803,  804,  805,  806,  807,  808,  809,  853,  854,  855,  856,  857,  858
  963,  964,  965,  966,  967,  968,  969,  970,  971,  972,  973,  974,  975,  976,  977,  978
  979,  980,  981,  982,  983,  984,  985,  986,  987,  988,  989,  990,  991,  992,  993,  994
  995,  996,  997,  998,  999, 1000, 1001, 1002, 1003, 1004, 1005, 1006, 1007, 1008, 1009, 1010
 1011, 1012, 1013, 1014, 1015, 1016, 1017, 1018, 1019, 1020, 1021, 1022, 1023, 1024, 1025, 1026
 1027, 1028, 1029, 1030, 1031, 1032, 1033, 1034, 1035, 1036, 1037, 1038, 1039, 1040, 1041, 1042
 1043, 1044, 1045, 1046, 1047, 1048, 1049, 1050, 1051, 1052, 1053, 1054, 1055, 1056, 1057, 1058
** ... 17 like lines cut
*Elset, elset=Set-2
    1,    2,    3,    4,    5,    6,    7,    8,    9,   10,   11,   12,   13,   14,   15,   16
   17,   18,   19,   20,   21,   22,   23,   24,   25,   26,   27,   28,   29,   30,   31,   32
   33,   34,   35,   36,   37,   38,   39,   40,   41,   42,   43,   44,   45,   46,   47,   48
   49,   50,   51,   52,   53,   54,   55,   56,   57,   58,   59,   60,   61,   62,   63,   64
   65,   66,   67,   68,   69,   70,   71,   72,   73,   74,   75,   76,   77,   78,   79,   80
   81,   82,   83,   84,   85,   86,   87,   88,   89,   90,   91,   92,   93,   94,   95,   96
   97,   98,   99,  100,  101,  102,  103,  104,  105,  106,  107,  108,  109,  110,  111,  112
  113,  114,  115,  116,  117,  118,  119,  120,  121,  122,  123,  124,  125,  126,  127,  128
  129,  130,  131,  132,  133,  134,  135,  136,  137,  138,  139,  140,  141,  142,  143,  144
  145,  146,  147,  148,  149,  150,  151,  152,  153,  154,  155,  156,  157,  158,  159,  160
  161,  162,  163,  164,  165,  166,  167,  168,  169,  170,  171,  172,  173,  174,  175,  176
  177,  178,  179,  180,  181,  182,  183,  184,  185,  186,  187,  188,  189,  190,  191,  192
  193,  194,  195,  196,  197,  198,  199,  200,  201,  202,  203,  204,  205,  206,  207,  208
  209,  210,  211,  212,  213,  214,  215,  216,  217,  218,  219,  220,  221,  222,  223,  224
  225,  226,  227,  228,  229,  230,  231,  232,  233,  234,  235,  236,  237, 3518, 3519, 3520
 3521, 3522, 3523, 3524, 3525, 3526, 3527, 3528, 3529, 3530, 3531, 3532, 3533, 3534, 3535, 3536
 3537, 3538, 3539, 3540, 3541, 3542, 3543, 3544, 3545, 3546, 3547, 3548, 3549, 3550, 3551, 3552
 3553, 3554, 3555, 3556, 3557, 3558, 3559, 3560, 3561, 3562, 3563, 3564, 3565, 3566, 3567, 3568
 3569, 3570, 3571, 3572, 3573, 3574, 3575, 3576, 3577, 3578, 3579, 3580, 3581, 3582, 3583, 3584
 3585, 3586, 3587, 3588, 3589, 3590, 3591, 3592, 3593, 3594, 3595, 3596, 3597, 3598, 3599, 3600
** ... 10 like lines cut
** Section: Section-2
*Shell Section, elset=Set-2, material=PLA
0.4, 5
** Section: Section-1
*Shell Section, elset=Set-1, composite
1.6, 3, PLA, 0., P1
0.4, 3, PLA, 90., P2
*End Part
**  
*Part, name=harrmer-3
*Node
      1,          0.5,           0.,           0.
      2,          0.5,          2.5,           0.
      3,           0.,         -0.5,           0.
      4,  0.489764959,           0.,   0.10064926
      5,  0.459478915,           0.,  0.197177932
      6,  0.410381734,           0.,    0.2856341
      7,  0.344483465,           0.,  0.362396389
      8,  0.264481992,           0.,  0.424322128
      9,  0.173652619,           0.,  0.468876064
     10, 0.0757138878,           0.,  0.494234174
     11, -0.0253245849,           0.,  0.499358267
     12, -0.125326261,           0.,  0.484038562
     13, -0.220197082,           0.,  0.448902279
     14, -0.306052983,           0.,  0.395387858
     15, -0.379379064,           0.,  0.325686246
     16, -0.437173307,           0.,  0.242650986
     17, -0.477069616,           0.,  0.149681568
     18, -0.497434676,           0., 0.0505841598
     19, -0.497434676,           0., -0.0505841598
     20, -0.477069616,           0., -0.149681568
** ... 952 like lines cut
*Element, type=R3D4
  1,   1,  33,  95,  34
  2,  33,  32,  96,  95
  3,  32,  31,  97,  96
  4,  31,  30,  98,  97
  5,  30,  29,  99,  98
  6,  29,  28, 100,  99
  7,  28,  27, 101, 100
  8,  27,  26, 102, 101
  9,  26,  25, 103, 102
 10,  25,  24, 104, 103
 11,  24,  23, 105, 104
 12,  23,  22, 106, 105
 13,  22,  21, 107, 106
 14,  21,  20, 108, 107
 15,  20,  19, 109, 108
 16,  19,  18, 110, 109
 17,  18,  17, 111, 110
 18,  17,  16, 112, 111
 19,  16,  15, 113, 112
 20,  15,  14, 114, 113
** ... 933 like lines cut
*Element, type=R3D3
776, 895, 894, 914
777, 827, 825, 824
778, 840, 855, 841
779, 892, 904, 893
780, 958, 968, 926
*Node
    973,  -1.86820528e-15,         -0.5,           0.
*Nset, nset=harrmer-3-RefPt_, internal
973, 
*Nset, nset=Set-1
 973,
*Elset, elset=harrmer-3, generate
   1,  958,    1
*Element, type=MASS, elset=Set-1_Inertia-1_MASS_
959, 973
*Mass, elset=Set-1_Inertia-1_MASS_
1e-11, 
*Element, type=ROTARYI, elset=Set-1_Inertia-1_ROTI_
960, 973
*Rotary Inertia, elset=Set-1_Inertia-1_ROTI_
1e-11, 1e-11, 1e-11, 0., 0., 0.
*End Part
**  
**
** ASSEMBLY
**
*Assembly, name=Assembly
**  
*Instance, name=Part-10-3, part=Part-10
*End Instance
**  
*Instance, name=harrmer-3-1, part=harrmer-3
 6.12323399573677e-17,           0.,         -0.5
 6.12323399573677e-17,           0.,         -0.5,  1.04530145555251e-16, 0.707106811231781, -1.20710681123178,         180.
*End Instance
**  
*Nset, nset=Set-91, instance=harrmer-3-1
 973,
*Nset, nset=Set-92, instance=Part-10-3, generate
    1,  7351,     1
*Elset, elset=Set-92, instance=Part-10-3, generate
    1,  7111,     1
*Nset, nset=Set-93, instance=Part-10-3
 34,
*Nset, nset=Set-94, instance=Part-10-3
 28,
*Nset, nset=Set-95, instance=Part-10-3
 37,
*Nset, nset=Set-96, instance=Part-10-3
 31,
*Nset, nset=load, instance=harrmer-3-1
 973,
*Nset, nset=m_Set-90, instance=harrmer-3-1
 973,
*Nset, nset=panel, instance=Part-10-3
    1,    2,    3,    4,    5,    6,    7,    8,    9,   10,   11,   12,   14,   15,   16,   17
   18,   19,   20,   21,   22,   23,   24,   25,   26,   27,   29,   30,   32,   33,   35,   36
   43,   44,   45,   46,   47,   48,   54,   55,   56,   57,   58,   59,   65,   66,   67,   68
   69,   70,   76,   77,   78,   79,   80,   81,   87,   88,   89,   90,   91,   92,   93,   94
  100,  101,  102,  103,  104,  105,  106,  107,  113,  114,  115,  116,  117,  118,  119,  120
  126,  127,  128,  129,  130,  131,  132,  133,  146,  147,  148,  149,  150,  151,  152,  153
  154,  155,  156,  157,  158,  159,  160,  161,  162,  163,  164,  165,  166,  167,  168,  169
  170,  171,  172,  173,  174,  175,  176,  177,  178,  179,  180,  181,  182,  183,  184,  185
  186,  187,  188,  189,  190,  191,  192,  193,  194,  195,  196,  197,  198,  199,  200,  201
  202,  203,  204,  205,  206,  207,  208,  209,  210,  211,  212,  213,  214,  215,  216,  217
  218,  219,  220,  221,  222,  223,  224,  225,  226,  227,  228,  229,  230,  231,  232,  233
  234,  235,  236,  237,  238,  239,  240,  241,  242,  243,  244,  245,  246,  247,  248,  249
  250,  251,  252,  253,  254,  255,  256,  257,  258,  259,  260,  261,  262,  263,  264,  265
  266,  267,  268,  269,  270,  271,  272,  273,  274,  275,  276,  277,  278,  279,  280,  281
  282,  283,  284,  285,  286,  287,  288,  289,  290,  291,  292,  293,  294,  295,  296,  297
  298,  299,  300,  301,  302,  303,  304,  305,  306,  307,  308,  309,  310,  311,  312,  313
  314,  315,  316,  317,  318,  319,  320,  321,  322,  323,  324,  325,  326,  327,  328,  329
  330,  331,  332,  333,  334,  335,  336,  337,  338,  339,  340,  341,  342,  343,  344,  345
  346,  347,  348,  349,  350,  351,  352,  353,  354,  355,  356,  357,  358,  359,  360,  361
  362,  363,  364,  365,  366,  367,  368,  369,  370,  371,  372,  373,  374,  375,  376,  377
** ... 412 like lines cut
*Elset, elset=panel, instance=Part-10-3
  238,  239,  240,  241,  242,  243,  244,  245,  246,  247,  248,  249,  250,  251,  252,  253
  254,  255,  256,  257,  258,  259,  260,  261,  262,  263,  264,  265,  266,  267,  268,  269
  270,  271,  272,  273,  274,  275,  276,  277,  278,  279,  280,  281,  282,  283,  284,  285
  286,  287,  288,  289,  290,  291,  292,  293,  294,  295,  296,  297,  298,  299,  300,  301
  302,  303,  304,  305,  306,  307,  308,  309,  310,  311,  312,  313,  314,  315,  316,  317
  318,  319,  320,  321,  322,  323,  324,  325,  326,  327,  328,  329,  330,  331,  332,  333
  334,  335,  336,  337,  338,  339,  340,  341,  342,  343,  344,  345,  346,  347,  348,  349
  350,  351,  352,  353,  354,  355,  356,  357,  358,  359,  360,  361,  362,  363,  364,  365
  366,  367,  368,  369,  370,  371,  372,  373,  374,  375,  376,  377,  378,  379,  380,  381
  382,  383,  384,  385,  386,  387,  388,  389,  390,  391,  392,  393,  394,  395,  396,  397
  398,  399,  400,  401,  402,  403,  404,  405,  406,  407,  408,  409,  410,  411,  412,  413
  414,  415,  416,  417,  418,  419,  420,  421,  422,  423,  424,  425,  426,  427,  428,  429
  430,  431,  432,  433,  434,  435,  436,  437,  438,  439,  440,  441,  442,  443,  444,  445
  446,  447,  448,  449,  450,  451,  452,  453,  454,  455,  456,  457,  458,  459,  460,  461
  462,  463,  464,  465,  466,  467,  468,  469,  470,  471,  472,  473,  474,  475,  476,  477
  478,  479,  480,  481,  482,  483,  484,  485,  486,  487,  488,  489,  490,  491,  492,  493
  494,  495,  496,  497,  498,  499,  500,  501,  502,  503,  504,  505,  506,  507,  508,  509
  510,  511,  512,  513,  514,  515,  516,  517,  518,  519,  520,  521,  522,  523,  524,  525
  526,  527,  528,  529,  530,  531,  532,  533,  534,  535,  536,  537,  538,  539,  540,  541
  542,  543,  544,  545,  546,  547,  548,  549,  550,  551,  552,  553,  554,  555,  556,  557
** ... 395 like lines cut
*Elset, elset=_Surf-8_SPOS, internal, instance=Part-10-3
  238,  239,  240,  241,  242,  243,  244,  245,  246,  247,  248,  249,  250,  251,  252,  253
  254,  255,  256,  257,  258,  259,  260,  261,  262,  263,  264,  265,  266,  267,  268,  269
  270,  271,  272,  273,  274,  275,  276,  277,  278,  279,  280,  281,  282,  283,  284,  285
  286,  287,  288,  289,  290,  291,  292,  293,  294,  295,  296,  297,  298,  299,  300,  301
  302,  303,  304,  305,  306,  307,  308,  309,  310,  311,  312,  313,  314,  315,  316,  317
  318,  319,  320,  321,  322,  323,  324,  325,  326,  327,  328,  329,  330,  331,  332,  333
  334,  335,  336,  337,  338,  339,  340,  341,  342,  343,  344,  345,  346,  347,  348,  349
  350,  351,  352,  353,  354,  355,  356,  357,  358,  359,  360,  361,  362,  363,  364,  365
  366,  367,  368,  369,  370,  371,  372,  373,  374,  375,  376,  377,  378,  379,  380,  381
  382,  383,  384,  385,  386,  387,  388,  389,  390,  391,  392,  393,  394,  395,  396,  397
  398,  399,  400,  401,  402,  403,  404,  405,  406,  407,  408,  409,  410,  411,  412,  413
  414,  415,  416,  417,  418,  419,  420,  421,  422,  423,  424,  425,  426,  427,  428,  429
  430,  431,  432,  433,  434,  435,  436,  437,  438,  439,  440,  441,  442,  443,  444,  445
  446,  447,  448,  449,  450,  451,  452,  453,  454,  455,  456,  457,  458,  459,  460,  461
  462,  463,  464,  465,  466,  467,  468,  469,  470,  471,  472,  473,  474,  475,  476,  477
  478,  479,  480,  481,  482,  483,  484,  485,  486,  487,  488,  489,  490,  491,  492,  493
  494,  495,  496,  497,  498,  499,  500,  501,  502,  503,  504,  505,  506,  507,  508,  509
  510,  511,  512,  513,  514,  515,  516,  517,  518,  519,  520,  521,  522,  523,  524,  525
  526,  527,  528,  529,  530,  531,  532,  533,  534,  535,  536,  537,  538,  539,  540,  541
  542,  543,  544,  545,  546,  547,  548,  549,  550,  551,  552,  553,  554,  555,  556,  557
** ... 395 like lines cut
*Surface, type=ELEMENT, name=Surf-8
_Surf-8_SPOS, SPOS
*Elset, elset=_s_Surf-7_SPOS, internal, instance=Part-10-3
  193,  194,  195,  196,  197,  198,  199,  200,  201,  202,  203,  204,  205,  206,  207,  208
  209,  210,  211,  212,  213,  214,  215,  216,  217,  218,  219,  220,  221,  222,  223,  224
  225,  226,  227,  228,  229,  230,  231,  232,  233,  234,  235,  236,  237, 6156, 6157, 6158
 6159, 6160, 6161, 6162, 6163, 6164, 6165, 6166, 6167, 6168, 6169, 6170
*Surface, type=ELEMENT, name=s_Surf-7
_s_Surf-7_SPOS, SPOS
*Rigid Body, ref node=harrmer-3-1.harrmer-3-RefPt_, elset=harrmer-3-1.harrmer-3
** Constraint: Constraint-9
*Coupling, constraint name=Constraint-9, ref node=m_Set-90, surface=s_Surf-7
*Kinematic
3, 3
*End Assembly
*Amplitude, name=Amp-1, definition=SMOOTH STEP
             0.,             25.,             0.1,             55.
*Amplitude, name=Amp-2, definition=SMOOTH STEP
             0.,              0.,             0.5,              1.
*Amplitude, name=Amp-3
             0.,             25.,             0.5,             65.
*Amplitude, name=Amp-4
             0.,              0.,             0.1,              1.,             0.3,              0.
*Amplitude, name=Amp-5, definition=SMOOTH STEP
             0.,              0.,             0.5,              1.
** 
** MATERIALS
** 
*Material, name=PLA
*Density
 1.25e-09,
*Elastic, type=LAMINA
 8.26, 6.608,  0.45,  0.79,  0.79,  0.79
*Expansion, type=ORTHO
 -0.00144675, 0.00017025,         0.
** 
** INTERACTION PROPERTIES
** 
*Surface Interaction, name=IntProp-1
*Friction
 0.3,
*Surface Behavior, pressure-overclosure=HARD
** 
** BOUNDARY CONDITIONS
** 
** Name: BC-10 Type: Displacement/Rotation
*Boundary
Set-91, 4, 4
Set-91, 5, 5
Set-91, 6, 6
** Name: BC-11 Type: Displacement/Rotation
*Boundary
Set-93, 1, 1
Set-93, 2, 2
Set-93, 3, 3
** Name: BC-13 Type: Displacement/Rotation
*Boundary
Set-94, 1, 1
Set-94, 3, 3
** Name: BC-14 Type: Displacement/Rotation
*Boundary
Set-95, 2, 2
Set-95, 3, 3
** Name: BC-15 Type: Displacement/Rotation
*Boundary
Set-96, 3, 3
** 
** PREDEFINED FIELDS
** 
** Name: Predefined Field-7   Type: Temperature
*Initial Conditions, type=TEMPERATURE
Set-92, 25.
** 
** INTERACTIONS
** 
** Interaction: Int-3
*Contact, op=NEW
*Contact Inclusions, ALL EXTERIOR
*Contact Property Assignment
 ,  , IntProp-1
** ----------------------------------------------------------------
** 
** STEP: Step-3
** 
*Step, name=Step-3, nlgeom=YES
*Dynamic, Explicit
, 0.5
*Bulk Viscosity
0.06, 1.2
** 
** BOUNDARY CONDITIONS
** 
** Name: BC-10 Type: Displacement/Rotation
*Boundary, op=NEW
Set-91, 4, 4
Set-91, 5, 5
Set-91, 6, 6
** Name: BC-11 Type: Displacement/Rotation
*Boundary, op=NEW
Set-93, 1, 1
Set-93, 2, 2
Set-93, 3, 3
** Name: BC-13 Type: Displacement/Rotation
*Boundary, op=NEW
Set-94, 1, 1
Set-94, 3, 3
** Name: BC-14 Type: Displacement/Rotation
*Boundary, op=NEW
Set-95, 2, 2
Set-95, 3, 3
** Name: BC-15 Type: Displacement/Rotation
*Boundary, op=NEW
Set-96, 3, 3
** 
** PREDEFINED FIELDS
** 
** Name: Predefined Field-7   Type: Temperature
*Temperature, amplitude=Amp-3
Set-92, 1.
** 
** OUTPUT REQUESTS
** 
*Restart, write, number interval=1, time marks=NO
** 
** FIELD OUTPUT: F-Output-2
** 
*Output, field, number interval=100
*Node Output
A, AR, AT, U, UR, UT, V, VR
VT
*Element Output, directions=YES
CTSHR, E, EFABRIC, ER, ERV, LE, MISES, MISESMAX, MISESONLY, NE, PE, PEEQ, PEEQMAX, PEEQT, PEEQVAVG, PEMAG
PEQC, PEVAVG, PRESSONLY, PS, S, SE, SFABRIC, SSAVG, SVAVG, TRIAX, TSHR, VE, VEEQ, VS
** 
** HISTORY OUTPUT: H-Output-4
** 
*Output, history, time interval=0.00025
*Energy Output
ALLAE, ALLCD, ALLCW, ALLDC, ALLDMD, ALLFD, ALLIE, ALLKE, ALLMW, ALLPD, ALLPW, ALLSE, ALLVD, ALLWK, ETOTAL
** 
** HISTORY OUTPUT: H-Output-5
** 
*Energy Output, elset=panel
ALLIE, ALLSE
*End Step
** ----------------------------------------------------------------
** 
** STEP: Step-4
** 
*Step, name=Step-4, nlgeom=YES
*Dynamic, Explicit
, 0.5
*Bulk Viscosity
0.06, 1.2
** 
** BOUNDARY CONDITIONS
** 
** Name: BC-10 Type: Displacement/Rotation
*Boundary, amplitude=Amp-5
Set-91, 3, 3, 2.
Set-91, 4, 4
Set-91, 5, 5
Set-91, 6, 6
** 
** OUTPUT REQUESTS
** 
*Restart, write, number interval=1, time marks=NO
** 
** FIELD OUTPUT: F-Output-2
** 
*Output, field, number interval=100
*Node Output
A, AR, AT, U, UR, UT, V, VR
VT
*Element Output, directions=YES
CTSHR, E, EFABRIC, ER, ERV, LE, MISES, MISESMAX, MISESONLY, NE, PE, PEEQ, PEEQMAX, PEEQT, PEEQVAVG, PEMAG
PEQC, PEVAVG, PRESSONLY, PS, S, SE, SFABRIC, SSAVG, SVAVG, TRIAX, TSHR, VE, VEEQ, VS
** 
** HISTORY OUTPUT: H-Output-4
** 
*Output, history, time interval=0.00025
*Energy Output
ALLAE, ALLCD, ALLCW, ALLDC, ALLDMD, ALLFD, ALLIE, ALLKE, ALLMW, ALLPD, ALLPW, ALLSE, ALLVD, ALLWK, ETOTAL
** 
** HISTORY OUTPUT: H-Output-3
** 
*Node Output, nset=load
RF3, U3
** 
** HISTORY OUTPUT: H-Output-5
** 
*Energy Output, elset=panel
ALLIE, ALLSE
*End Step
