*Heading
** Job name: WW_edgeshape_L24_t04 Model name: fv_edge_connect-modified-24
** Generated by: Abaqus/CAE 6.14-4
*Preprint, echo=NO, model=NO, history=NO, contact=NO
**
** PARTS
**
*Part, name=fv_edge
*Node
      1,  -4.56568527,          -4.,           0.
      2,          -4.,  -4.56568527,           0.
      3,  -3.71715736,  -4.28284264,           0.
      4,  -4.28284264,  -3.71715736,           0.
      5,          -4.,  -3.43431449,           0.
      6,  -3.43431449,          -4.,           0.
      7,  -3.15147185,  -3.71715736,           0.
      8,  -3.71715736,  -3.15147185,           0.
      9,   10.8686295,  -4.56568527,           0.
     10,   11.4343147,  -5.13137102,           0.
     11,   11.7171574,  -4.84852791,           0.
     12,   11.1514721,  -4.28284264,           0.
     13,   2.86862922,   3.43431449,           0.
     14,   3.43431449,   2.86862922,           0.
     15,   3.71715736,   3.15147185,           0.
     16,   3.15147185,   3.71715736,           0.
     17,  -5.13137102,   11.4343147,           0.
     18,  -4.56568527,   10.8686295,           0.
     19,  -4.28284264,   11.1514721,           0.
     20,  -4.84852791,   11.7171574,           0.
** ... 14106 like lines cut
*Element, type=S4R
1,   1, 775, 776,   4
2, 775,   2,   3, 776
3,   5, 777, 778,   8
4, 777,   6,   7, 778
5,   9, 779, 780,  12
6, 779,  10,  11, 780
7,  13, 781, 782,  16
8, 781,  14,  15, 782
 9,  17, 783, 784,  20
10, 783,  18,  19, 784
11,  21, 785, 786,  24
12, 785,  22,  23, 786
13,  25, 787, 788,  28
14, 787,  26,  27, 788
15,  29, 789, 790,  32
16, 789,  30,  31, 790
17,  33, 791, 792,  36
18, 791,  34,  35, 792
19,  37, 793, 794,  40
20, 793,  38,  39, 794
** ... 13059 like lines cut
*Element, type=S3
10573, 12174, 12173, 12129
10574, 12123, 12111, 12175
10575, 12171, 12153, 12156
10681, 12258, 12257, 12214
10682, 12212, 12196, 12259
10683, 12253, 12242, 12240
10788, 12288, 12277, 12346
10789, 12297, 12270, 12278
10790, 12326, 12334, 12332
10895, 12427, 12426, 12382
10896, 12379, 12364, 12428
10897, 12424, 12405, 12408
11003, 12512, 12511, 12467
11004, 12513, 12464, 12440
11005, 12509, 12491, 12493
11111, 12597, 12596, 12552
11112, 12598, 12547, 12534
11113, 12594, 12576, 12579
11219, 12682, 12681, 12636
11220, 12633, 12619, 12683
** ... 58 like lines cut
*Nset, nset=Set-1
     1,     2,     3,     4,     5,     6,     7,     8,     9,    10,    11,    12,    13,    16,    17,    18
    19,    20,    21,    22,    23,    24,    25,    28,    29,    30,    31,    32,    33,    34,    35,    36
    37,    38,    39,    40,    41,    44,    45,    46,    47,    48,    49,    52,    53,    54,    55,    56
    57,    60,    61,    62,    63,    64,    65,    66,    67,    68,    69,    70,    72,    74,    75,    78
    79,    80,    81,    82,    83,    86,    87,    88,    89,    90,    91,    94,    95,    98,    99,   100
   101,   102,   103,   106,   107,   108,   109,   110,   111,   114,   115,   118,   119,   120,   121,   122
   123,   126,   127,   128,   129,   130,   131,   134,   135,   138,   139,   140,   141,   142,   143,   146
   147,   150,   151,   152,   153,   154,   155,   158,   159,   160,   161,   162,   163,   166,   167,   170
   171,   174,   175,   178,   179,   182,   195,   198,   199,   200,   201,   202,   208,   209,   210,   217
   218,   219,   220,   222,   223,   229,   230,   231,   232,   234,   235,   237,   240,   241,   242,   243
   244,   245,   248,   249,   250,   251,   252,   258,   259,   260,   262,   263,   264,   271,   272,   273
   274,   276,   277,   279,   280,   281,   282,   284,   285,   287,   288,   289,   290,   291,   294,   295
   296,   297,   298,   299,   302,   303,   304,   305,   306,   307,   308,   310,   311,   312,   314,   315
   316,   317,   318,   319,   320,   322,   323,   325,   326,   327,   328,   330,   331,   333,   334,   335
   336,   337,   338,   339,   340,   342,   343,   345,   346,   347,   348,   349,   350,   351,   352,   354
   355,   357,   358,   359,   360,   361,   362,   363,   364,   366,   367,   369,   370,   371,   372,   373
   374,   375,   376,   377,   378,   379,   380,   381,   382,   383,   384,   385,   386,   387,   388,   389
   390,   391,   392,   393,   396,   397,   398,   399,   400,   401,   404,   405,   406,   407,   408,   409
   410,   411,   412,   413,   414,   415,   416,   417,   418,   419,   420,   422,   423,   426,   427,   430
   432,   433,   434,   436,   437,   438,   440,   445,   446,   448,   449,   450,   452,   453,   454,   455
** ... 351 like lines cut
*Elset, elset=Set-1
     1,     2,     3,     4,     5,     6,     9,    10,    11,    12,    15,    16,    17,    18,    19,    20
    23,    24,    27,    28,    31,    32,    33,    34,    35,    36,    37,    38,    45,    46,    49,    50
    55,    56,    59,    60,    65,    66,    69,    70,    75,    76,    81,    82,    85,    86,   105,   106
   111,   112,   117,   118,   123,   124,   129,   130,   133,   134,   139,   140,   143,   144,   149,   150
   153,   154,   157,   158,   161,   162,   165,   166,   167,   168,   171,   172,   175,   176,   177,   178
   181,   182,   185,   186,   187,   188,   191,   192,   193,   194,   197,   198,   199,   200,   203,   204
   205,   206,   207,   208,   209,   210,   211,   212,   213,   214,   215,   216,   219,   220,   221,   222
   223,   224,   227,   228,   231,   232,   235,   236,   237,   238,   239,   240,   241,   242,   251,   252
   259,   260,   265,   266,   269,   270,   279,   280,   285,   286,   291,   292,   295,   296,   301,   302
   305,   306,   309,   310,   311,   312,   313,   314,   317,   318,   321,   322,   323,   324,   327,   328
   331,   332,   333,   334,   337,   338,   339,   340,   343,   344,   345,   346,   854,   855,   856,   857
   858,   859,   860,   861,   862,   863,   864,   865,   866,   867,   868,   869,   870,   871,   872,   873
   874,   875,   876,   877,   878,   879,   880,   881,   882,   883,   884,   885,   886,   887,   888,   889
   890,   891,   892,   893,   894,   895,   896,   897,   898,   899,   900,   901,   902,   903,   904,   905
   906,   907,   908,   909,   910,   911,   912,   913,   914,   915,   916,   917,   918,   919,   920,   921
   922,   923,   924,   925,   926,   927,   928,   929,   930,   931,   932,   933,   934,   935,   936,   937
   938,   939,   940,   941,   942,   943,   944,   945,   946,   947,   948,   949,   950,   951,   952,   953
   954,   955,   956,   957,   958,   959,   960,   961,   962,   963,   964,   965,   966,   967,   968,   969
   970,   971,   972,   973,   974,   975,   976,   977,   978,   979,   980,   981,   982,   983,   984,   985
   986,   987,   988,   989,   990,   991,   992,   993,   994,   995,   996,   997,   998,   999,  1000,  1001
** ... 320 like lines cut
*Nset, nset=Set-2
     1,     2,     3,     4,     5,     6,     7,     8,     9,    10,    11,    12,    13,    14,    15,    16
    17,    18,    19,    20,    21,    22,    23,    24,    25,    26,    27,    28,    29,    30,    31,    32
    33,    34,    35,    36,    37,    38,    39,    40,    41,    42,    43,    44,    45,    46,    47,    48
    49,    50,    51,    52,    53,    54,    55,    56,    57,    58,    59,    60,    61,    62,    63,    64
    65,    66,    67,    68,    69,    70,    71,    72,    73,    74,    75,    76,    77,    78,    79,    80
    81,    82,    83,    84,    85,    86,    87,    88,    89,    90,    92,    93,    95,    96,    97,    98
    99,   100,   101,   102,   103,   104,   105,   106,   107,   108,   109,   110,   112,   113,   116,   117
   119,   120,   121,   122,   123,   124,   125,   126,   127,   128,   129,   130,   131,   132,   133,   134
   135,   136,   137,   138,   139,   140,   141,   142,   144,   145,   147,   148,   149,   150,   151,   152
   153,   154,   156,   157,   159,   160,   161,   162,   163,   164,   165,   166,   168,   169,   172,   173
   176,   177,   180,   181,   183,   184,   185,   186,   187,   188,   189,   190,   191,   192,   193,   194
   195,   196,   197,   198,   199,   200,   201,   202,   203,   204,   205,   206,   207,   208,   209,   210
   211,   212,   213,   214,   215,   216,   217,   218,   219,   220,   221,   222,   223,   224,   225,   226
   227,   228,   229,   230,   231,   232,   233,   234,   235,   236,   237,   238,   239,   240,   241,   242
   243,   244,   245,   246,   247,   248,   249,   250,   251,   252,   253,   254,   255,   256,   257,   258
   259,   260,   261,   262,   263,   264,   265,   266,   267,   268,   269,   270,   271,   272,   273,   274
   275,   276,   277,   278,   279,   280,   281,   282,   283,   284,   285,   286,   287,   290,   291,   292
   293,   294,   295,   296,   297,   298,   299,   300,   301,   302,   303,   304,   305,   306,   308,   309
   310,   311,   312,   313,   314,   315,   316,   318,   319,   321,   322,   323,   324,   325,   326,   327
   328,   329,   330,   331,   332,   333,   334,   335,   336,   338,   339,   341,   342,   343,   344,   345
** ... 767 like lines cut
*Elset, elset=Set-2
   347,   348,   349,   350,   351,   352,   353,   354,   355,   356,   357,   358,   359,   360,   361,   362
   363,   364,   365,   366,   367,   368,   369,   370,   371,   372,   373,   374,   375,   376,   377,   378
   379,   380,   381,   382,   383,   384,   385,   386,   387,   388,   389,   390,   391,   392,   393,   394
   395,   396,   397,   398,   399,   400,   401,   402,   403,   404,   405,   406,   407,   408,   409,   410
   411,   412,   413,   414,   415,   416,   417,   418,   419,   420,   421,   422,   423,   424,   425,   426
   427,   428,   429,   430,   431,   432,   433,   434,   435,   436,   437,   438,   439,   440,   441,   442
   443,   444,   445,   446,   447,   448,   449,   450,   451,   452,   453,   454,   455,   456,   457,   458
   459,   460,   461,   462,   463,   464,   465,   466,   467,   468,   469,   470,   471,   472,   473,   474
   475,   476,   477,   478,   479,   480,   481,   482,   483,   484,   485,   486,   487,   488,   489,   490
   491,   492,   493,   494,   495,   496,   497,   498,   499,   500,   501,   502,   503,   504,   505,   506
   507,   508,   509,   510,   511,   512,   513,   514,   515,   516,   517,   518,   519,   520,   521,   522
   523,   524,   525,   526,   527,   528,   529,   530,   531,   532,   533,   534,   535,   536,   537,   538
   539,   540,   541,   542,   543,   544,   545,   546,   547,   548,   549,   550,   551,   552,   553,   554
   555,   556,   557,   558,   559,   560,   561,   562,   563,   564,   565,   566,   567,   568,   569,   570
   571,   572,   573,   574,   575,   576,   577,   578,   579,   580,   581,   582,   583,   584,   585,   586
   587,   588,   589,   590,   591,   592,   593,   594,   595,   596,   597,   598,   599,   600,   601,   602
   603,   604,   605,   606,   607,   608,   609,   610,   611,   612,   613,   614,   615,   616,   617,   618
   619,   620,   621,   622,   623,   624,   625,   626,   627,   628,   629,   630,   631,   632,   633,   634
   635,   636,   637,   638,   639,   640,   641,   642,   643,   644,   645,   646,   647,   648,   649,   650
   651,   652,   653,   654,   655,   656,   657,   658,   659,   660,   661,   662,   663,   664,   665,   666
** ... 704 like lines cut
*Nset, nset=Set-3
     1,     2,     3,     4,     5,     6,     7,     8,     9,    10,    11,    12,    13,    14,    15,    16
    17,    18,    19,    20,    21,    22,    23,    24,    25,    26,    27,    28,    29,    30,    31,    32
    33,    34,    35,    36,    37,    38,    39,    40,    41,    42,    43,    44,    45,    46,    47,    48
    49,    50,    51,    52,    53,    54,    55,    56,    57,    58,    59,    60,    61,    62,    63,    64
    65,    66,    67,    68,    69,    70,    71,    72,    73,    74,    75,    76,    77,    78,    79,    80
    81,    82,    83,    84,    85,    86,    87,    88,    89,    90,    91,    92,    93,    94,    95,    96
    97,    98,    99,   100,   101,   102,   103,   104,   105,   106,   107,   108,   109,   110,   111,   112
   113,   114,   115,   116,   117,   118,   119,   120,   121,   122,   123,   124,   125,   126,   127,   128
   129,   130,   131,   132,   133,   134,   135,   136,   137,   138,   139,   140,   141,   142,   143,   144
   145,   146,   147,   148,   149,   150,   151,   152,   153,   154,   155,   156,   157,   158,   159,   160
   161,   162,   163,   164,   165,   166,   167,   168,   169,   170,   171,   172,   173,   174,   175,   176
   177,   178,   179,   180,   181,   182,   183,   184,   185,   186,   187,   188,   189,   190,   191,   192
   193,   194,   195,   196,   197,   198,   199,   200,   201,   202,   203,   204,   205,   206,   207,   208
   209,   210,   211,   212,   213,   214,   215,   216,   217,   218,   219,   220,   221,   222,   223,   224
   225,   226,   227,   228,   229,   230,   231,   232,   233,   234,   235,   236,   237,   238,   239,   240
   241,   242,   243,   244,   245,   246,   247,   248,   249,   250,   251,   252,   253,   254,   255,   256
   257,   258,   259,   260,   261,   262,   263,   264,   265,   266,   267,   268,   269,   270,   271,   272
   273,   274,   275,   276,   277,   278,   279,   280,   281,   282,   283,   284,   285,   286,   287,   288
   289,   290,   291,   292,   293,   294,   295,   296,   297,   298,   299,   300,   301,   302,   303,   304
   305,   306,   307,   308,   309,   310,   311,   312,   313,   314,   315,   316,   317,   318,   319,   320
** ... 848 like lines cut
*Elset, elset=Set-3
   347,   348,   349,   350,   351,   352,   353,   354,   355,   356,   357,   358,   359,   360,   361,   362
   363,   364,   365,   366,   367,   368,   369,   370,   371,   372,   373,   374,   375,   376,   377,   378
   379,   380,   381,   382,   383,   384,   385,   386,   387,   388,   389,   390,   391,   392,   393,   394
   395,   396,   397,   398,   399,   400,   401,   402,   403,   404,   405,   406,   407,   408,   409,   410
   411,   412,   413,   414,   415,   416,   417,   418,   419,   420,   421,   422,   423,   424,   425,   426
   427,   428,   429,   430,   431,   432,   433,   434,   435,   436,   437,   438,   439,   440,   441,   442
   443,   444,   445,   446,   447,   448,   449,   450,   451,   452,   453,   454,   455,   456,   457,   458
   459,   460,   461,   462,   463,   464,   465,   466,   467,   468,   469,   470,   471,   472,   473,   474
   475,   476,   477,   478,   479,   480,   481,   482,   483,   484,   485,   486,   487,   488,   489,   490
   491,   492,   493,   494,   495,   496,   497,   498,   499,   500,   501,   502,   503,   504,   505,   506
   507,   508,   509,   510,   511,   512,   513,   514,   515,   516,   517,   518,   519,   520,   521,   522
   523,   524,   525,   526,   527,   528,   529,   530,   531,   532,   533,   534,   535,   536,   537,   538
   539,   540,   541,   542,   543,   544,   545,   546,   547,   548,   549,   550,   551,   552,   553,   554
   555,   556,   557,   558,   559,   560,   561,   562,   563,   564,   565,   566,   567,   568,   569,   570
   571,   572,   573,   574,   575,   576,   577,   578,   579,   580,   581,   582,   583,   584,   585,   586
   587,   588,   589,   590,   591,   592,   593,   594,   595,   596,   597,   598,   599,   600,   601,   602
   603,   604,   605,   606,   607,   608,   609,   610,   611,   612,   613,   614,   615,   616,   617,   618
   619,   620,   621,   622,   623,   624,   625,   626,   627,   628,   629,   630,   631,   632,   633,   634
   635,   636,   637,   638,   639,   640,   641,   642,   643,   644,   645,   646,   647,   648,   649,   650
   651,   652,   653,   654,   655,   656,   657,   658,   659,   660,   661,   662,   663,   664,   665,   666
** ... 776 like lines cut
*Nset, nset=Set-4
    1,    2,    3,    4,    5,    6,    7,    8,    9,   10,   11,   12,   13,   14,   15,   16
   17,   18,   19,   20,   21,   22,   23,   24,   25,   26,   27,   28,   29,   30,   31,   32
   33,   34,   35,   36,   37,   38,   39,   40,   41,   42,   43,   44,   45,   46,   47,   48
   49,   50,   51,   52,   53,   54,   55,   56,   57,   58,   59,   60,   61,   62,   63,   64
   65,   66,   67,   68,   69,   70,   71,   72,   73,   74,   75,   76,   77,   78,   79,   80
   81,   82,   83,   84,   85,   86,   87,   88,   89,   90,   91,   92,   93,   94,   95,   96
   97,   98,   99,  100,  101,  102,  103,  104,  105,  106,  107,  108,  109,  110,  111,  112
  113,  114,  115,  116,  117,  118,  119,  120,  121,  122,  123,  124,  125,  126,  127,  128
  129,  130,  131,  132,  133,  134,  135,  136,  137,  138,  139,  140,  141,  142,  143,  144
  145,  146,  147,  148,  149,  150,  151,  152,  153,  154,  155,  156,  157,  158,  159,  160
  161,  162,  163,  164,  165,  166,  167,  168,  169,  170,  171,  172,  173,  174,  175,  176
  177,  178,  179,  180,  181,  182,  183,  184,  185,  186,  187,  188,  189,  190,  191,  192
  193,  194,  195,  196,  197,  198,  199,  200,  201,  202,  203,  204,  205,  206,  207,  208
  209,  210,  211,  212,  213,  214,  215,  216,  217,  218,  219,  220,  221,  222,  223,  224
  225,  226,  227,  228,  229,  230,  231,  232,  233,  234,  235,  236,  237,  238,  239,  240
  241,  242,  243,  244,  245,  246,  247,  248,  249,  250,  251,  252,  253,  254,  255,  256
  257,  258,  259,  260,  261,  262,  263,  264,  265,  266,  267,  268,  269,  270,  271,  272
  273,  274,  275,  276,  277,  278,  279,  280,  281,  282,  283,  284,  285,  286,  287,  288
  289,  290,  291,  292,  293,  294,  295,  296,  297,  298,  299,  300,  301,  302,  303,  304
  305,  306,  307,  308,  309,  310,  311,  312,  313,  314,  315,  316,  317,  318,  319,  320
** ... 28 like lines cut
*Elset, elset=Set-4
     1,     2,     3,     4,     5,     6,     7,     8,     9,    10,    11,    12,    13,    14,    15,    16
    17,    18,    19,    20,    21,    22,    23,    24,    25,    26,    27,    28,    29,    30,    31,    32
    33,    34,    35,    36,    37,    38,    39,    40,    41,    42,    43,    44,    45,    46,    47,    48
    49,    50,    51,    52,    53,    54,    55,    56,    57,    58,    59,    60,    61,    62,    63,    64
    65,    66,    67,    68,    69,    70,    71,    72,    73,    74,    75,    76,    77,    78,    79,    80
    81,    82,    83,    84,    85,    86,    87,    88,    89,    90,    91,    92,    93,    94,    95,    96
    97,    98,    99,   100,   101,   102,   103,   104,   105,   106,   107,   108,   109,   110,   111,   112
   113,   114,   115,   116,   117,   118,   119,   120,   121,   122,   123,   124,   125,   126,   127,   128
   129,   130,   131,   132,   133,   134,   135,   136,   137,   138,   139,   140,   141,   142,   143,   144
   145,   146,   147,   148,   149,   150,   151,   152,   153,   154,   155,   156,   157,   158,   159,   160
   161,   162,   163,   164,   165,   166,   167,   168,   169,   170,   171,   172,   173,   174,   175,   176
   177,   178,   179,   180,   181,   182,   183,   184,   185,   186,   187,   188,   189,   190,   191,   192
   193,   194,   195,   196,   197,   198,   199,   200,   201,   202,   203,   204,   205,   206,   207,   208
   209,   210,   211,   212,   213,   214,   215,   216,   217,   218,   219,   220,   221,   222,   223,   224
   225,   226,   227,   228,   229,   230,   231,   232,   233,   234,   235,   236,   237,   238,   239,   240
   241,   242,   243,   244,   245,   246,   247,   248,   249,   250,   251,   252,   253,   254,   255,   256
   257,   258,   259,   260,   261,   262,   263,   264,   265,   266,   267,   268,   269,   270,   271,   272
   273,   274,   275,   276,   277,   278,   279,   280,   281,   282,   283,   284,   285,   286,   287,   288
   289,   290,   291,   292,   293,   294,   295,   296,   297,   298,   299,   300,   301,   302,   303,   304
   305,   306,   307,   308,   309,   310,   311,   312,   313,   314,   315,   316,   317,   318,   319,   320
** ... 7 like lines cut
** Section: Section-2
*Shell Section, elset=Set-4, material=PLA
0.4, 5
** Section: Section-1
*Shell Section, elset=Set-3, composite
1., 3, PLA, 0., P1
1., 3, PLA, 90., P2
*End Part
**  
**
** ASSEMBLY
**
*Assembly, name=Assembly
**  
*Instance, name=fv_edge-1, part=fv_edge
*End Instance
**  
*Nset, nset=Set-80, instance=fv_edge-1
 766,
*Nset, nset=Set-81, instance=fv_edge-1
 750,
*Nset, nset=Set-82, instance=fv_edge-1
 744,
*Nset, nset=Set-83, instance=fv_edge-1
 739,
*Nset, nset=Set-84, instance=fv_edge-1
  305,  474,  476,  477,  478,  480,  481,  482,  483,  485,  486,  488,  490,  491,  492,  493
  494,  496,  497,  498,  499,  500,  501,  503,  504,  505,  506,  508,  509,  511,  512,  513
  514,  516,  518,  519,  520,  521,  522,  524,  525,  526,  527,  528,  529,  531,  532,  533
  535,  536,  537,  538,  539,  540,  542,  543,  544,  545,  547,  548,  550,  552,  553,  554
  555,  556,  558,  559,  560,  561,  562,  563,  564,  565,  567,  568,  569,  571,  572,  573
  574,  576,  577,  579,  581,  582,  583,  584,  585,  587,  589,  590,  592,  593,  594,  596
  598,  599,  600,  601,  602,  603,  604,  605,  606,  608,  610,  611,  612,  613,  616,  617
  618,  620,  621,  622,  623,  625,  626,  627,  630,  631,  633,  635,  636,  639,  640,  641
  642,  644,  645,  646,  648,  649,  650,  651,  654,  655,  656,  658,  659,  660,  662,  663
  664,  665,  666,  667,  668,  669,  670,  673,  674,  675,  676,  678,  679,  680,  682,  683
  684,  687,  688,  689,  690,  691,  692,  693,  694,  695,  696,  697,  698,  699,  700,  701
  702,  703,  704,  706,  707,  708,  709,  710,  711,  712,  713,  714,  715,  717,  718,  719
  720,  721,  722,  723,  724,  725,  726,  727,  728,  729,  730,  731,  732,  733,  734,  735
  736,  737,  738,  739,  740,  741,  742,  743,  744,  745,  746,  747,  748,  749,  750,  751
  752,  753,  754,  755,  756,  757,  758,  759,  760,  761,  762,  763,  764,  765,  766,  767
  768,  769,  770,  771,  772,  773,  774, 1023, 1024, 1025, 1026, 1027, 1028, 1029, 1030, 1031
 1032, 1033, 1034, 1035, 1036, 1037, 1074, 1075, 1076, 1077, 1078, 1079, 1080, 1081, 1082, 1083
 1084, 1085, 1086, 1087, 1088, 1089, 1102, 1103, 1104, 1105, 1106, 1107, 1108, 1109, 1110, 1111
 1112, 1113, 1114, 1115, 1116, 1117, 1142, 1143, 1144, 1145, 1146, 1147, 1148, 1149, 1150, 1151
 1152, 1153, 1154, 1155, 1156, 1157, 1170, 1171, 1172, 1173, 1174, 1175, 1176, 1177, 1178, 1179
** ... 67 like lines cut
*Elset, elset=Set-84, instance=fv_edge-1
   411,   424,   437,   450,   463,   476,   489,   502,   507,   508,   509,   510,   511,   512,   513,   514
   515,   568,   581,   594,   607,   620,   633,   646,   659,   672,   673,   674,   675,   676,   677,   678
   679,   680,   749,   762,   775,   788,   801,   814,   827,   840,   845,   846,   847,   848,   849,   850
   851,   852,   853,   906,   919,   932,   945,   958,   971,   984,   997,  1010,  1011,  1012,  1013,  1014
  1015,  1016,  1017,  1018,  1087,  1100,  1113,  1126,  1139,  1152,  1165,  1178,  1183,  1184,  1185,  1186
  1187,  1188,  1189,  1190,  1191,  1246,  1259,  1272,  1285,  1298,  1311,  1324,  1337,  1350,  1351,  1352
  1353,  1354,  1355,  1356,  1357,  1358,  1427,  1440,  1453,  1466,  1479,  1492,  1505,  1518,  1523,  1524
  1525,  1526,  1527,  1528,  1529,  1530,  1531,  1586,  1599,  1612,  1625,  1638,  1651,  1664,  1677,  1690
  1691,  1692,  1693,  1694,  1695,  1696,  1697,  1698,  1767,  1780,  1793,  1806,  1819,  1832,  1845,  1858
  1863,  1864,  1865,  1866,  1867,  1868,  1869,  1870,  1871,  1938,  1951,  1964,  1977,  1990,  2003,  2016
  2029,  2034,  2035,  2036,  2037,  2038,  2039,  2040,  2041,  2042,  2095,  2108,  2121,  2134,  2147,  2160
  2173,  2186,  2199,  2200,  2201,  2202,  2203,  2204,  2205,  2206,  2207,  2278,  2291,  2304,  2317,  2330
  2343,  2356,  2369,  2374,  2375,  2376,  2377,  2378,  2379,  2380,  2381,  2382,  2435,  2448,  2461,  2474
  2487,  2500,  2513,  2526,  2539,  2540,  2541,  2542,  2543,  2544,  2545,  2546,  2547,  2618,  2631,  2644
  2657,  2670,  2683,  2696,  2709,  2714,  2715,  2716,  2717,  2718,  2719,  2720,  2721,  2722,  2787,  2800
  2813,  2826,  2839,  2852,  2865,  2878,  2883,  2884,  2885,  2886,  2887,  2888,  2889,  2890,  2891,  2946
  2959,  2972,  2985,  2998,  3011,  3024,  3037,  3050,  3051,  3052,  3053,  3054,  3055,  3056,  3057,  3058
  3127,  3140,  3153,  3166,  3179,  3192,  3205,  3218,  3223,  3224,  3225,  3226,  3227,  3228,  3229,  3230
  3231,  3286,  3299,  3312,  3325,  3338,  3351,  3364,  3377,  3390,  3391,  3392,  3393,  3394,  3395,  3396
  3397,  3398,  3467,  3480,  3493,  3506,  3519,  3532,  3545,  3558,  3563,  3564,  3565,  3566,  3567,  3568
** ... 58 like lines cut
*Nset, nset=Set-85, instance=fv_edge-1
     1,     2,     3,     4,     5,     6,     7,     8,     9,    10,    11,    12,    13,    14,    15,    16
    17,    18,    19,    20,    21,    22,    23,    24,    25,    26,    27,    28,    29,    30,    31,    32
    33,    34,    35,    36,    37,    38,    39,    40,    41,    42,    43,    44,    45,    46,    47,    48
    49,    50,    51,    52,    53,    54,    55,    56,    57,    58,    59,    60,    61,    62,    63,    64
    65,    66,    67,    68,    69,    70,    71,    72,    73,    74,    75,    76,    77,    78,    79,    80
    81,    82,    83,    84,    85,    86,    87,    88,    89,    90,    91,    92,    93,    94,    95,    96
    97,    98,    99,   100,   101,   102,   103,   104,   105,   106,   107,   108,   109,   110,   111,   112
   113,   114,   115,   116,   117,   118,   119,   120,   121,   122,   123,   124,   125,   126,   127,   128
   129,   130,   131,   132,   133,   134,   135,   136,   137,   138,   139,   140,   141,   142,   143,   144
   145,   146,   147,   148,   149,   150,   151,   152,   153,   154,   155,   156,   157,   158,   159,   160
   161,   162,   163,   164,   165,   166,   167,   168,   169,   170,   171,   172,   173,   174,   175,   176
   177,   178,   179,   180,   181,   182,   183,   184,   185,   186,   187,   188,   189,   190,   191,   192
   193,   194,   195,   196,   197,   198,   199,   200,   201,   202,   203,   204,   205,   206,   207,   208
   209,   210,   211,   212,   213,   214,   215,   216,   217,   218,   219,   220,   221,   222,   223,   224
   225,   226,   227,   228,   229,   230,   231,   232,   233,   234,   235,   236,   237,   238,   239,   240
   241,   242,   243,   244,   245,   246,   247,   248,   249,   250,   251,   252,   253,   254,   255,   256
   257,   258,   259,   260,   261,   262,   263,   264,   265,   266,   267,   268,   269,   270,   271,   272
   273,   274,   275,   276,   277,   278,   279,   280,   281,   282,   283,   284,   285,   286,   287,   288
   289,   290,   291,   292,   293,   294,   295,   296,   297,   298,   299,   300,   301,   302,   303,   304
   305,   306,   307,   308,   309,   310,   311,   312,   313,   314,   315,   316,   317,   318,   319,   320
** ... 854 like lines cut
*Elset, elset=Set-85, instance=fv_edge-1, generate
     1,  13157,      1
*Nset, nset=Set-86, instance=fv_edge-1, generate
     1,  14126,      1
*Elset, elset=Set-86, instance=fv_edge-1, generate
     1,  13157,      1
*Nset, nset=Set-87, instance=fv_edge-1
     1,     2,     3,     4,     5,     6,     7,     8,     9,    10,    11,    12,    13,    14,    15,    16
    17,    18,    19,    20,    21,    22,    23,    24,    25,    26,    27,    28,    29,    30,    31,    32
    33,    34,    35,    36,    37,    38,    39,    40,    41,    42,    43,    44,    45,    46,    47,    48
    49,    50,    51,    52,    53,    54,    55,    56,    57,    58,    59,    60,    61,    62,    63,    64
    65,    66,    67,    68,    69,    70,    71,    72,    73,    74,    75,    76,    77,    78,    79,    80
    81,    82,    83,    84,    85,    86,    87,    88,    89,    90,    91,    92,    93,    94,    95,    96
    97,    98,    99,   100,   101,   102,   103,   104,   105,   106,   107,   108,   109,   110,   111,   112
   113,   114,   115,   116,   117,   118,   119,   120,   121,   122,   123,   124,   125,   126,   127,   128
   129,   130,   131,   132,   133,   134,   135,   136,   137,   138,   139,   140,   141,   142,   143,   144
   145,   146,   147,   148,   149,   150,   151,   152,   153,   154,   155,   156,   157,   158,   159,   160
   161,   162,   163,   164,   165,   166,   167,   168,   169,   170,   171,   172,   173,   174,   175,   176
   177,   178,   179,   180,   181,   182,   183,   184,   185,   186,   187,   188,   189,   190,   191,   192
   193,   194,   195,   196,   197,   198,   199,   200,   201,   202,   203,   204,   205,   206,   207,   208
   209,   210,   211,   212,   213,   214,   215,   216,   217,   218,   219,   220,   221,   222,   223,   224
   225,   226,   227,   228,   229,   230,   231,   232,   233,   234,   235,   236,   237,   238,   239,   240
   241,   242,   243,   244,   245,   246,   247,   248,   249,   250,   251,   252,   253,   254,   255,   256
   257,   258,   259,   260,   261,   262,   263,   264,   265,   266,   267,   268,   269,   270,   271,   272
   273,   274,   275,   276,   277,   278,   279,   280,   281,   282,   283,   284,   285,   286,   287,   288
   289,   290,   291,   292,   293,   294,   295,   296,   297,   298,   299,   300,   301,   302,   303,   304
   305,   306,   307,   308,   309,   310,   311,   312,   313,   314,   315,   316,   317,   318,   319,   320
** ... 848 like lines cut
*Elset, elset=Set-87, instance=fv_edge-1
   347,   348,   349,   350,   351,   352,   353,   354,   355,   356,   357,   358,   359,   360,   361,   362
   363,   364,   365,   366,   367,   368,   369,   370,   371,   372,   373,   374,   375,   376,   377,   378
   379,   380,   381,   382,   383,   384,   385,   386,   387,   388,   389,   390,   391,   392,   393,   394
   395,   396,   397,   398,   399,   400,   401,   402,   403,   404,   405,   406,   407,   408,   409,   410
   411,   412,   413,   414,   415,   416,   417,   418,   419,   420,   421,   422,   423,   424,   425,   426
   427,   428,   429,   430,   431,   432,   433,   434,   435,   436,   437,   438,   439,   440,   441,   442
   443,   444,   445,   446,   447,   448,   449,   450,   451,   452,   453,   454,   455,   456,   457,   458
   459,   460,   461,   462,   463,   464,   465,   466,   467,   468,   469,   470,   471,   472,   473,   474
   475,   476,   477,   478,   479,   480,   481,   482,   483,   484,   485,   486,   487,   488,   489,   490
   491,   492,   493,   494,   495,   496,   497,   498,   499,   500,   501,   502,   503,   504,   505,   506
   507,   508,   509,   510,   511,   512,   513,   514,   515,   516,   517,   518,   519,   520,   521,   522
   523,   524,   525,   526,   527,   528,   529,   530,   531,   532,   533,   534,   535,   536,   537,   538
   539,   540,   541,   542,   543,   544,   545,   546,   547,   548,   549,   550,   551,   552,   553,   554
   555,   556,   557,   558,   559,   560,   561,   562,   563,   564,   565,   566,   567,   568,   569,   570
   571,   572,   573,   574,   575,   576,   577,   578,   579,   580,   581,   582,   583,   584,   585,   586
   587,   588,   589,   590,   591,   592,   593,   594,   595,   596,   597,   598,   599,   600,   601,   602
   603,   604,   605,   606,   607,   608,   609,   610,   611,   612,   613,   614,   615,   616,   617,   618
   619,   620,   621,   622,   623,   624,   625,   626,   627,   628,   629,   630,   631,   632,   633,   634
   635,   636,   637,   638,   639,   640,   641,   642,   643,   644,   645,   646,   647,   648,   649,   650
   651,   652,   653,   654,   655,   656,   657,   658,   659,   660,   661,   662,   663,   664,   665,   666
** ... 776 like lines cut
*End Assembly
*Amplitude, name=Amp-1, definition=SMOOTH STEP
             0.,             25.,             0.1,             55.
*Amplitude, name=Amp-2, definition=SMOOTH STEP
             0.,              0.,             0.5,              1.
*Amplitude, name=Amp-3
             0.,             25.,             0.5,             65.
*Amplitude, name=Amp-4
             0.,              0.,            0.25,              1.,             0.5,              0.
** 
** MATERIALS
** 
*Material, name=PLA
*Density
 1.25e-09,
*Elastic, type=LAMINA
 8.26, 6.608,  0.45,  0.79,  0.79,  0.79
*Expansion, type=ORTHO
 -0.00144675, 0.00017025,         0.
** 
** INTERACTION PROPERTIES
** 
*Surface Interaction, name=IntProp-1
1.,
*Friction
0.,
*Surface Behavior, pressure-overclosure=HARD
** 
** BOUNDARY CONDITIONS
** 
** Name: BC-5 Type: Displacement/Rotation
*Boundary
Set-80, 1, 1
Set-80, 2, 2
Set-80, 3, 3
** Name: BC-6 Type: Displacement/Rotation
*Boundary
Set-81, 2, 2
Set-81, 3, 3
** Name: BC-7 Type: Displacement/Rotation
*Boundary
Set-82, 1, 1
Set-82, 3, 3
** Name: BC-8 Type: Displacement/Rotation
*Boundary
Set-83, 3, 3
** 
** PREDEFINED FIELDS
** 
** Name: Predefined Field-7   Type: Temperature
*Initial Conditions, type=TEMPERATURE
Set-87, 25.
** ----------------------------------------------------------------
** 
** STEP: Step-1
** 
*Step, name=Step-1, nlgeom=YES, inc=1000
*Static
0.5, 0.5, 5e-06, 0.5
** 
** PREDEFINED FIELDS
** 
** Name: Predefined Field-7   Type: Temperature
*Temperature, amplitude=Amp-3
Set-87, 1.
** 
** OUTPUT REQUESTS
** 
*Restart, write, frequency=0
** 
** FIELD OUTPUT: F-Output-1
** 
*Output, field, variable=PRESELECT, number interval=100
** 
** HISTORY OUTPUT: H-Output-1
** 
*Output, history, variable=PRESELECT, number interval=100
*End Step
