*Heading
** Job name: WW_edgeshape_L16_t04-2 Model name: fv_edge_connect-modified-16
** Generated by: Abaqus/CAE 6.14-4
*Preprint, echo=NO, model=NO, history=NO, contact=NO
**
** PARTS
**
*Part, name=fv_edge
*Node
      1,  -4.84852791,  -4.28284264,           0.
      2,  -4.28284264,  -4.84852791,           0.
      3,  -3.71715736,  -4.28284264,           0.
      4,  -4.28284264,  -3.71715736,           0.
      5,   11.1514721,  -4.28284264,           0.
      6,   11.7171574,  -4.84852791,           0.
      7,   12.2828426,  -4.28284264,           0.
      8,   11.7171574,  -3.71715736,           0.
      9,   3.15147185,   3.71715736,           0.
     10,   3.71715736,   3.15147185,           0.
     11,   4.28284264,   3.71715736,           0.
     12,   3.71715736,   4.28284264,           0.
     13,  -4.84852791,   11.7171574,           0.
     14,  -4.28284264,   11.1514721,           0.
     15,  -3.71715736,   11.7171574,           0.
     16,  -4.28284264,   12.2828426,           0.
     17,   12.8485279,  -3.71715736,           0.
     18,   12.2828426,  -3.15147185,           0.
     19,  -3.15147185,   12.2828426,           0.
     20,  -3.71715736,   12.8485279,           0.
** ... 14024 like lines cut
*Element, type=S4R
1,    1,  487, 3313,  490
2,  487,    2,  488, 3313
3,  490, 3313,  489,    4
4, 3313,  488,    3,  489
5,    5,  491, 3314,  494
6,  491,    6,  492, 3314
7,  494, 3314,  493,    8
8, 3314,  492,    7,  493
 9,    9,  495, 3315,  498
10,  495,   10,  496, 3315
11,  498, 3315,  497,   12
12, 3315,  496,   11,  497
13,   13,  499, 3316,  502
14,  499,   14,  500, 3316
15,  502, 3316,  501,   16
16, 3316,  500,   15,  501
17,   17,  503, 3317,  505
18,  503,   18,  504, 3317
19,  505, 3317,  493,    7
20, 3317,  504,    8,  493
** ... 12904 like lines cut
*Element, type=S3
10429, 12101, 12100, 12057
10430, 12102, 12051, 12039
10431, 12092, 12084, 12091
10432, 12097, 12086, 12083
10433, 12096, 12082, 12081
10537, 12185, 12184, 12141
10538, 12186, 12139, 12123
10539, 12180, 12169, 12167
10644, 12273, 12215, 12204
10645, 12224, 12197, 12205
10646, 12254, 12262, 12260
10751, 12354, 12353, 12309
10752, 12306, 12291, 12355
10753, 12351, 12332, 12335
10859, 12439, 12438, 12394
10860, 12391, 12367, 12440
10861, 12436, 12418, 12420
10967, 12523, 12522, 12479
10968, 12524, 12474, 12461
10969, 12519, 12508, 12505
** ... 60 like lines cut
*Nset, nset=Set-1
     1,     2,     3,     4,     5,     6,     7,     8,     9,    12,    13,    14,    15,    16,    17,    18
    19,    20,    22,    23,    26,    27,    28,    29,    30,    32,    33,    36,    37,    39,    41,    42
    43,    49,    52,    53,    54,    55,    56,    63,    64,    66,    67,    70,    71,    72,    73,    74
    75,    78,    79,    80,    81,    82,    89,    90,    92,    93,    94,    96,    97,    98,    99,   100
   101,   102,   103,   104,   105,   108,   109,   110,   111,   112,   113,   116,   117,   118,   119,   120
   121,   122,   124,   125,   126,   128,   129,   130,   131,   132,   133,   134,   136,   137,   139,   140
   141,   142,   144,   156,   157,   158,   159,   160,   161,   162,   163,   164,   165,   166,   176,   177
   178,   179,   180,   181,   182,   183,   184,   185,   186,   187,   188,   190,   191,   193,   201,   202
   208,   209,   210,   211,   212,   213,   214,   215,   216,   217,   218,   225,   226,   227,   228,   229
   230,   231,   232,   233,   234,   235,   236,   237,   247,   248,   249,   250,   251,   252,   254,   255
   257,   258,   259,   260,   261,   267,   268,   269,   271,   279,   280,   281,   282,   283,   284,   285
   299,   311,   312,   313,   314,   317,   324,   325,   326,   327,   333,   334,   335,   336,   337,   338
   339,   344,   345,   346,   347,   348,   353,   354,   355,   356,   357,   358,   359,   360,   361,   362
   363,   364,   365,   366,   371,   372,   373,   374,   375,   382,   383,   384,   385,   386,   387,   388
   389,   390,   394,   399,   400,   401,   402,   407,   408,   409,   410,   419,   420,   421,   422,   423
   429,   430,   431,   444,   445,   446,   447,   448,   449,   460,   461,   470,   471,   474,   475,   487
   488,   489,   490,   491,   492,   493,   494,   498,   499,   500,   501,   502,   503,   504,   505,   506
   507,   508,   510,   515,   516,   517,   518,   519,   521,   525,   530,   531,   532,   533,   536,   544
   545,   546,   547,   548,   556,   557,   558,   560,   565,   566,   567,   568,   569,   573,   574,   575
   576,   577,   585,   586,   587,   589,   591,   592,   593,   595,   597,   598,   599,   600,   601,   602
** ... 346 like lines cut
*Elset, elset=Set-1
     1,     2,     3,     4,     5,     6,     7,     8,    13,    14,    15,    16,    17,    18,    19,    20
    21,    22,    23,    24,    33,    34,    35,    36,    49,    50,    51,    52,    65,    66,    67,    68
    77,    78,    79,    80,    89,    90,    91,    92,    97,    98,    99,   100,   109,   110,   111,   112
   117,   118,   119,   120,   125,   126,   127,   128,   129,   130,   131,   132,   137,   138,   139,   140
   145,   146,   147,   148,   149,   150,   151,   152,   157,   158,   159,   160,   165,   166,   167,   168
   169,   170,   171,   172,   177,   178,   179,   180,   688,   689,   690,   691,   692,   693,   694,   695
   696,   697,   698,   699,   700,   701,   702,   703,   704,   705,   706,   707,   708,   709,   710,   711
   712,   713,   714,   715,   716,   717,   718,   719,   720,   721,   722,   723,   724,   725,   726,   727
   728,   729,   730,   731,   732,   733,   734,   735,   736,   737,   738,   739,   740,   741,   742,   743
   744,   745,   746,   747,   748,   749,   750,   751,   752,   753,   754,   755,   756,   757,   758,   759
   760,   761,   762,   763,   764,   765,   766,   767,   768,   769,   770,   771,   772,   773,   774,   775
   776,   777,   778,   779,   780,   781,   782,   783,   784,   785,   786,   787,   788,   789,   790,   791
   792,   793,   794,   795,   796,   797,   798,   799,   800,   801,   802,   803,   804,   805,   806,   807
   808,   809,   810,   811,   812,   813,   814,   815,   816,   817,   818,   819,   820,   821,   822,   823
   824,   825,   826,   827,   828,   829,   830,   831,   832,   833,   834,   835,   836,   837,   838,   839
   840,   841,   842,   843,   844,   845,   846,   847,   848,   849,   850,   851,   852,   853,   854,   855
   856,   857,   858,   859,   860,   861,   862,   863,   864,   865,   866,   867,   868,   869,   870,   871
   872,   873,   874,   875,   876,   877,   878,   879,   880,   881,   882,   883,   884,   885,   886,   887
   888,   889,   890,   891,   892,   893,   894,   895,   896,   897,   898,   899,   900,   901,   902,   903
   904,   905,   906,   907,   908,   909,   910,   911,   912,   913,   914,   915,   916,   917,   918,   919
** ... 315 like lines cut
*Nset, nset=Set-2
     1,     2,     3,     4,     5,     6,     7,     8,     9,    10,    11,    12,    13,    14,    15,    16
    17,    18,    19,    20,    21,    22,    24,    25,    27,    28,    29,    30,    31,    32,    33,    34
    35,    38,    39,    40,    41,    42,    44,    45,    46,    47,    48,    49,    50,    51,    52,    53
    54,    55,    56,    57,    58,    59,    60,    61,    62,    63,    64,    65,    66,    67,    68,    69
    70,    71,    72,    73,    74,    75,    76,    77,    78,    79,    80,    81,    82,    83,    84,    85
    86,    87,    88,    89,    90,    91,    92,    93,    94,    95,    96,    98,    99,   101,   104,   105
   106,   107,   108,   109,   110,   111,   112,   113,   114,   115,   116,   117,   118,   119,   120,   122
   123,   124,   125,   126,   127,   128,   129,   130,   132,   133,   135,   136,   137,   138,   139,   140
   141,   142,   143,   144,   145,   146,   147,   148,   149,   150,   151,   152,   153,   154,   155,   156
   157,   158,   159,   160,   161,   162,   163,   164,   165,   166,   167,   168,   169,   170,   171,   172
   173,   174,   175,   176,   177,   178,   179,   180,   181,   182,   183,   184,   185,   186,   187,   188
   189,   190,   191,   192,   193,   194,   195,   196,   197,   198,   199,   200,   201,   202,   203,   204
   205,   206,   207,   208,   209,   210,   211,   212,   213,   214,   215,   216,   217,   218,   219,   220
   221,   222,   223,   224,   225,   226,   227,   228,   229,   230,   231,   232,   233,   234,   235,   236
   237,   238,   239,   240,   241,   242,   243,   244,   245,   246,   247,   248,   249,   250,   251,   252
   253,   256,   257,   258,   259,   260,   261,   262,   263,   264,   265,   266,   267,   268,   269,   270
   271,   272,   273,   274,   275,   276,   277,   278,   279,   280,   281,   282,   283,   284,   285,   286
   287,   288,   289,   290,   291,   292,   293,   294,   295,   296,   297,   298,   299,   300,   301,   302
   303,   304,   305,   306,   307,   308,   309,   310,   311,   312,   313,   314,   315,   316,   317,   318
   319,   320,   321,   322,   323,   324,   325,   326,   327,   328,   329,   330,   331,   332,   333,   334
** ... 767 like lines cut
*Elset, elset=Set-2
   181,   182,   183,   184,   185,   186,   187,   188,   189,   190,   191,   192,   193,   194,   195,   196
   197,   198,   199,   200,   201,   202,   203,   204,   205,   206,   207,   208,   209,   210,   211,   212
   213,   214,   215,   216,   217,   218,   219,   220,   221,   222,   223,   224,   225,   226,   227,   228
   229,   230,   231,   232,   233,   234,   235,   236,   237,   238,   239,   240,   241,   242,   243,   244
   245,   246,   247,   248,   249,   250,   251,   252,   253,   254,   255,   256,   257,   258,   259,   260
   261,   262,   263,   264,   265,   266,   267,   268,   269,   270,   271,   272,   273,   274,   275,   276
   277,   278,   279,   280,   281,   282,   283,   284,   285,   286,   287,   288,   289,   290,   291,   292
   293,   294,   295,   296,   297,   298,   299,   300,   301,   302,   303,   304,   305,   306,   307,   308
   309,   310,   311,   312,   313,   314,   315,   316,   317,   318,   319,   320,   321,   322,   323,   324
   325,   326,   327,   328,   329,   330,   331,   332,   333,   334,   335,   336,   337,   338,   339,   340
   341,   342,   343,   344,   345,   346,   347,   348,   349,   350,   351,   352,   353,   354,   355,   356
   357,   358,   359,   360,   361,   362,   363,   364,   365,   366,   367,   368,   369,   370,   371,   372
   373,   374,   375,   376,   377,   378,   379,   380,   381,   382,   383,   384,   385,   386,   387,   388
   389,   390,   391,   392,   393,   394,   395,   396,   397,   398,   399,   400,   401,   402,   403,   404
   405,   406,   407,   408,   409,   410,   411,   412,   413,   414,   415,   416,   417,   418,   419,   420
   421,   422,   423,   424,   425,   426,   427,   428,   429,   430,   431,   432,   433,   434,   435,   436
   437,   438,   439,   440,   441,   442,   443,   444,   445,   446,   447,   448,   449,   450,   451,   452
   453,   454,   455,   456,   457,   458,   459,   460,   461,   462,   463,   464,   465,   466,   467,   468
   469,   470,   471,   472,   473,   474,   475,   476,   477,   478,   479,   480,   481,   482,   483,   484
   485,   486,   487,   488,   489,   490,   491,   492,   493,   494,   495,   496,   497,   498,   499,   500
** ... 703 like lines cut
*Nset, nset=Set-3
     1,     2,     3,     4,     5,     6,     7,     8,     9,    10,    11,    12,    13,    14,    15,    16
    17,    18,    19,    20,    21,    22,    23,    24,    25,    26,    27,    28,    29,    30,    31,    32
    33,    34,    35,    36,    37,    38,    39,    40,    41,    42,    43,    44,    45,    46,    47,    48
    49,    50,    51,    52,    53,    54,    55,    56,    57,    58,    59,    60,    61,    62,    63,    64
    65,    66,    67,    68,    69,    70,    71,    72,    73,    74,    75,    76,    77,    78,    79,    80
    81,    82,    83,    84,    85,    86,    87,    88,    89,    90,    91,    92,    93,    94,    95,    96
    97,    98,    99,   100,   101,   102,   103,   104,   105,   106,   107,   108,   109,   110,   111,   112
   113,   114,   115,   116,   117,   118,   119,   120,   121,   122,   123,   124,   125,   126,   127,   128
   129,   130,   131,   132,   133,   134,   135,   136,   137,   138,   139,   140,   141,   142,   143,   144
   145,   146,   147,   148,   149,   150,   151,   152,   153,   154,   155,   156,   157,   158,   159,   160
   161,   162,   163,   164,   165,   166,   167,   168,   169,   170,   171,   172,   173,   174,   175,   176
   177,   178,   179,   180,   181,   182,   183,   184,   185,   186,   187,   188,   189,   190,   191,   192
   193,   194,   195,   196,   197,   198,   199,   200,   201,   202,   203,   204,   205,   206,   207,   208
   209,   210,   211,   212,   213,   214,   215,   216,   217,   218,   219,   220,   221,   222,   223,   224
   225,   226,   227,   228,   229,   230,   231,   232,   233,   234,   235,   236,   237,   238,   239,   240
   241,   242,   243,   244,   245,   246,   247,   248,   249,   250,   251,   252,   253,   254,   255,   256
   257,   258,   259,   260,   261,   262,   263,   264,   265,   266,   267,   268,   269,   270,   271,   272
   273,   274,   275,   276,   277,   278,   279,   280,   281,   282,   283,   284,   285,   286,   287,   288
   289,   290,   291,   292,   293,   294,   295,   296,   297,   298,   299,   300,   301,   302,   303,   304
   305,   306,   307,   308,   309,   310,   311,   312,   313,   314,   315,   316,   317,   318,   319,   320
** ... 847 like lines cut
*Elset, elset=Set-3
   181,   182,   183,   184,   185,   186,   187,   188,   189,   190,   191,   192,   193,   194,   195,   196
   197,   198,   199,   200,   201,   202,   203,   204,   205,   206,   207,   208,   209,   210,   211,   212
   213,   214,   215,   216,   217,   218,   219,   220,   221,   222,   223,   224,   225,   226,   227,   228
   229,   230,   231,   232,   233,   234,   235,   236,   237,   238,   239,   240,   241,   242,   243,   244
   245,   246,   247,   248,   249,   250,   251,   252,   253,   254,   255,   256,   257,   258,   259,   260
   261,   262,   263,   264,   265,   266,   267,   268,   269,   270,   271,   272,   273,   274,   275,   276
   277,   278,   279,   280,   281,   282,   283,   284,   285,   286,   287,   288,   289,   290,   291,   292
   293,   294,   295,   296,   297,   298,   299,   300,   301,   302,   303,   304,   305,   306,   307,   308
   309,   310,   311,   312,   313,   314,   315,   316,   317,   318,   319,   320,   321,   322,   323,   324
   325,   326,   327,   328,   329,   330,   331,   332,   333,   334,   335,   336,   337,   338,   339,   340
   341,   342,   343,   344,   345,   346,   347,   348,   349,   350,   351,   352,   353,   354,   355,   356
   357,   358,   359,   360,   361,   362,   363,   364,   365,   366,   367,   368,   369,   370,   371,   372
   373,   374,   375,   376,   377,   378,   379,   380,   381,   382,   383,   384,   385,   386,   387,   388
   389,   390,   391,   392,   393,   394,   395,   396,   397,   398,   399,   400,   401,   402,   403,   404
   405,   406,   407,   408,   409,   410,   411,   412,   413,   414,   415,   416,   417,   418,   419,   420
   421,   422,   423,   424,   425,   426,   427,   428,   429,   430,   431,   432,   433,   434,   435,   436
   437,   438,   439,   440,   441,   442,   443,   444,   445,   446,   447,   448,   449,   450,   451,   452
   453,   454,   455,   456,   457,   458,   459,   460,   461,   462,   463,   464,   465,   466,   467,   468
   469,   470,   471,   472,   473,   474,   475,   476,   477,   478,   479,   480,   481,   482,   483,   484
   485,   486,   487,   488,   489,   490,   491,   492,   493,   494,   495,   496,   497,   498,   499,   500
** ... 775 like lines cut
*Nset, nset=Set-4
     1,     2,     3,     4,     5,     6,     7,     8,     9,    10,    11,    12,    13,    14,    15,    16
    17,    18,    19,    20,    21,    22,    23,    24,    25,    26,    27,    28,    29,    30,    31,    32
    33,    34,    35,    36,    37,    38,    39,    40,    41,    42,    43,    44,    45,    46,    47,    48
    49,    50,    51,    52,    53,    54,    55,    56,    57,    58,    59,    60,    61,    62,    63,    64
    65,    66,    67,    68,    69,    70,    71,    72,    73,    74,    75,    76,    77,    78,    79,    80
    81,    82,    83,    84,    85,    86,    87,    88,    89,    90,    91,    92,    93,    94,    95,    96
    97,    98,    99,   100,   101,   102,   103,   104,   105,   106,   107,   108,   109,   110,   111,   112
   113,   114,   115,   116,   117,   118,   119,   120,   121,   122,   123,   124,   125,   126,   127,   128
   129,   130,   131,   132,   133,   134,   135,   136,   137,   138,   139,   140,   141,   142,   144,   163
   164,   165,   166,   171,   172,   176,   177,   182,   183,   187,   188,   190,   191,   193,   201,   202
   203,   204,   212,   213,   214,   216,   220,   221,   225,   226,   231,   232,   236,   237,   242,   243
   247,   248,   253,   254,   255,   256,   257,   258,   267,   268,   269,   271,   299,   308,   312,   317
   325,   330,   344,   348,   358,   359,   364,   368,   372,   375,   381,   382,   386,   387,   391,   392
   393,   394,   399,   407,   415,   419,   420,   424,   487,   488,   489,   490,   491,   492,   493,   494
   495,   496,   497,   498,   499,   500,   501,   502,   503,   504,   505,   506,   507,   508,   509,   510
   511,   512,   513,   514,   515,   516,   517,   518,   519,   520,   521,   522,   523,   524,   525,   526
   527,   528,   529,   530,   531,   532,   533,   534,   535,   536,   537,   538,   539,   540,   541,   542
   543,   544,   545,   546,   547,   548,   549,   550,   551,   552,   553,   554,   555,   556,   557,   558
   559,   560,   561,   562,   563,   564,   565,   566,   567,   568,   569,   570,   571,   572,   573,   574
   575,   576,   577,   578,   579,   580,   581,   582,   583,   584,   585,   586,   587,   588,   589,   590
** ... 14 like lines cut
*Elset, elset=Set-4
     1,     2,     3,     4,     5,     6,     7,     8,     9,    10,    11,    12,    13,    14,    15,    16
    17,    18,    19,    20,    21,    22,    23,    24,    25,    26,    27,    28,    29,    30,    31,    32
    33,    34,    35,    36,    37,    38,    39,    40,    41,    42,    43,    44,    45,    46,    47,    48
    49,    50,    51,    52,    53,    54,    55,    56,    57,    58,    59,    60,    61,    62,    63,    64
    65,    66,    67,    68,    69,    70,    71,    72,    73,    74,    75,    76,    77,    78,    79,    80
    81,    82,    83,    84,    85,    86,    87,    88,    89,    90,    91,    92,    93,    94,    95,    96
    97,    98,    99,   100,   101,   102,   103,   104,   105,   106,   107,   108,   109,   110,   111,   112
   113,   114,   115,   116,   117,   118,   119,   120,   121,   122,   123,   124,   125,   126,   127,   128
   129,   130,   131,   132,   133,   134,   135,   136,   137,   138,   139,   140,   141,   142,   143,   144
   145,   146,   147,   148,   149,   150,   151,   152,   153,   154,   155,   156,   157,   158,   159,   160
   161,   162,   163,   164,   165,   166,   167,   168,   169,   170,   171,   172,   173,   174,   175,   176
   177,   178,   179,   180,  1026,  1027,  1028,  1029,  1368,  1369,  1370,  1371,  1710,  1711,  1712,  1713
  2052,  2053,  2054,  2055,  2394,  2395,  2396,  2397,  2736,  2737,  2738,  2739,  3078,  3079,  3080,  3081
  3420,  3421,  3422,  3423,  3593,  3594,  3595,  3596,  3935,  3936,  3937,  3938,  7657,  7658,  7659,  7660
  7830,  7831,  7832,  7833,  8003,  8004,  8005,  8006,  8176,  8177,  8178,  8179,  8349,  8350,  8351,  8352
  8522,  8523,  8524,  8525,  8695,  8696,  8697,  8698,  8699,  8700,  8701,  8702,  8703,  8704,  8705,  8706
  8876,  8877,  8878,  8879,  9049,  9050,  9051,  9052,  9222,  9223,  9224,  9225,  9395,  9396,  9397,  9398
  9568,  9569,  9570,  9571,  9741,  9742,  9743,  9744,  9914,  9915,  9916,  9917, 10425, 10426, 10427, 10428
** Section: Section-2
*Shell Section, elset=Set-4, material=PLA
0.4, 5
** Section: Section-1
*Shell Section, elset=Set-3, composite
1., 3, PLA, 0., P1
1., 3, PLA, 90., P2
*End Part
**  
**
** ASSEMBLY
**
*Assembly, name=Assembly
**  
*Instance, name=fv_edge-1, part=fv_edge
*End Instance
**  
*Nset, nset=Set-80, instance=fv_edge-1
 478,
*Nset, nset=Set-81, instance=fv_edge-1
 462,
*Nset, nset=Set-82, instance=fv_edge-1
 456,
*Nset, nset=Set-83, instance=fv_edge-1
 451,
*Nset, nset=Set-84, instance=fv_edge-1
  119,  145,  146,  147,  148,  150,  151,  152,  153,  154,  155,  157,  158,  159,  160,  161
  162,  168,  169,  170,  173,  174,  175,  179,  180,  181,  184,  185,  186,  192,  194,  195
  196,  198,  199,  200,  205,  206,  207,  209,  210,  211,  215,  217,  218,  222,  223,  224
  228,  229,  230,  233,  234,  235,  239,  240,  241,  244,  245,  246,  250,  251,  252,  259
  260,  261,  263,  264,  265,  266,  270,  272,  273,  274,  276,  277,  278,  280,  281,  282
  283,  284,  285,  287,  288,  289,  290,  291,  292,  294,  295,  296,  298,  300,  301,  303
  304,  305,  306,  307,  309,  310,  311,  313,  314,  316,  318,  319,  320,  321,  322,  323
  324,  326,  327,  328,  329,  331,  332,  333,  334,  335,  337,  338,  339,  340,  341,  342
  343,  345,  346,  347,  349,  350,  351,  352,  353,  354,  355,  357,  360,  361,  363,  365
  366,  367,  369,  370,  371,  373,  374,  377,  378,  379,  380,  383,  384,  385,  388,  389
  390,  395,  396,  397,  398,  400,  401,  402,  403,  404,  405,  406,  408,  409,  410,  411
  412,  413,  414,  416,  417,  418,  421,  422,  423,  425,  426,  427,  428,  429,  430,  431
  432,  433,  434,  435,  436,  437,  438,  439,  440,  441,  442,  443,  444,  445,  446,  447
  448,  449,  450,  451,  452,  453,  454,  455,  456,  457,  458,  459,  460,  461,  462,  463
  464,  465,  466,  467,  468,  469,  470,  471,  472,  473,  474,  475,  476,  477,  478,  479
  480,  481,  482,  483,  484,  485,  486,  662,  663,  664,  665,  666,  667,  668,  669,  671
  672,  673,  674,  675,  676,  677,  714,  715,  716,  717,  718,  719,  720,  721,  724,  725
  726,  727,  728,  729,  730,  731,  745,  746,  747,  748,  749,  750,  751,  752,  754,  755
  756,  757,  758,  759,  760,  761,  786,  787,  788,  789,  790,  791,  792,  793,  796,  797
  798,  799,  800,  801,  802,  803,  817,  818,  819,  820,  821,  822,  823,  824,  826,  827
** ... 67 like lines cut
*Elset, elset=Set-84, instance=fv_edge-1
   245,   258,   271,   284,   297,   310,   323,   336,   341,   342,   343,   344,   345,   346,   347,   348
   349,   402,   415,   428,   441,   454,   467,   480,   493,   506,   507,   508,   509,   510,   511,   512
   513,   514,   583,   596,   609,   622,   635,   648,   661,   674,   679,   680,   681,   682,   683,   684
   685,   686,   687,   740,   753,   766,   779,   792,   805,   818,   831,   844,   845,   846,   847,   848
   849,   850,   851,   852,   921,   934,   947,   960,   973,   986,   999,  1012,  1017,  1018,  1019,  1020
  1021,  1022,  1023,  1024,  1025,  1082,  1095,  1108,  1121,  1134,  1147,  1160,  1173,  1186,  1187,  1188
  1189,  1190,  1191,  1192,  1193,  1194,  1263,  1276,  1289,  1302,  1315,  1328,  1341,  1354,  1359,  1360
  1361,  1362,  1363,  1364,  1365,  1366,  1367,  1424,  1437,  1450,  1463,  1476,  1489,  1502,  1515,  1528
  1529,  1530,  1531,  1532,  1533,  1534,  1535,  1536,  1605,  1618,  1631,  1644,  1657,  1670,  1683,  1696
  1701,  1702,  1703,  1704,  1705,  1706,  1707,  1708,  1709,  1778,  1791,  1804,  1817,  1830,  1843,  1856
  1869,  1874,  1875,  1876,  1877,  1878,  1879,  1880,  1881,  1882,  1935,  1948,  1961,  1974,  1987,  2000
  2013,  2026,  2039,  2040,  2041,  2042,  2043,  2044,  2045,  2046,  2047,  2120,  2133,  2146,  2159,  2172
  2185,  2198,  2211,  2216,  2217,  2218,  2219,  2220,  2221,  2222,  2223,  2224,  2277,  2290,  2303,  2316
  2329,  2342,  2355,  2368,  2381,  2382,  2383,  2384,  2385,  2386,  2387,  2388,  2389,  2462,  2475,  2488
  2501,  2514,  2527,  2540,  2553,  2558,  2559,  2560,  2561,  2562,  2563,  2564,  2565,  2566,  2631,  2644
  2657,  2670,  2683,  2696,  2709,  2722,  2727,  2728,  2729,  2730,  2731,  2732,  2733,  2734,  2735,  2792
  2805,  2818,  2831,  2844,  2857,  2870,  2883,  2896,  2897,  2898,  2899,  2900,  2901,  2902,  2903,  2904
  2973,  2986,  2999,  3012,  3025,  3038,  3051,  3064,  3069,  3070,  3071,  3072,  3073,  3074,  3075,  3076
  3077,  3134,  3147,  3160,  3173,  3186,  3199,  3212,  3225,  3238,  3239,  3240,  3241,  3242,  3243,  3244
  3245,  3246,  3315,  3328,  3341,  3354,  3367,  3380,  3393,  3406,  3411,  3412,  3413,  3414,  3415,  3416
** ... 58 like lines cut
*Nset, nset=Set-85, instance=fv_edge-1, generate
     1,  14044,      1
*Elset, elset=Set-85, instance=fv_edge-1, generate
     1,  13004,      1
*End Assembly
*Amplitude, name=Amp-1, definition=SMOOTH STEP
             0.,             25.,             0.1,             55.
*Amplitude, name=Amp-2, definition=SMOOTH STEP
             0.,              0.,             0.5,              1.
*Amplitude, name=Amp-3
             0.,             25.,             0.5,             65.
*Amplitude, name=Amp-4
             0.,              0.,            0.25,              1.,             0.5,              0.
** 
** MATERIALS
** 
*Material, name=PLA
*Density
 1.25e-09,
*Elastic, type=LAMINA
 8.26, 6.608,  0.45,  0.79,  0.79,  0.79
*Expansion, type=ORTHO
 -0.00144675, 0.00017025,         0.
** 
** INTERACTION PROPERTIES
** 
*Surface Interaction, name=IntProp-1
1.,
*Friction
0.,
*Surface Behavior, pressure-overclosure=HARD
** 
** BOUNDARY CONDITIONS
** 
** Name: BC-5 Type: Displacement/Rotation
*Boundary
Set-80, 1, 1
Set-80, 2, 2
Set-80, 3, 3
** Name: BC-6 Type: Displacement/Rotation
*Boundary
Set-81, 2, 2
Set-81, 3, 3
** Name: BC-7 Type: Displacement/Rotation
*Boundary
Set-82, 1, 1
Set-82, 3, 3
** Name: BC-8 Type: Displacement/Rotation
*Boundary
Set-83, 3, 3
** 
** PREDEFINED FIELDS
** 
** Name: Predefined Field-7   Type: Temperature
*Initial Conditions, type=TEMPERATURE
Set-85, 25.
** ----------------------------------------------------------------
** 
** STEP: Step-1
** 
*Step, name=Step-1, nlgeom=YES, inc=1000
*Static
0.5, 0.5, 5e-06, 0.5
** 
** PREDEFINED FIELDS
** 
** Name: Predefined Field-7   Type: Temperature
*Temperature, amplitude=Amp-3
Set-85, 1.
** 
** OUTPUT REQUESTS
** 
*Restart, write, frequency=0
** 
** FIELD OUTPUT: F-Output-1
** 
*Output, field, variable=PRESELECT, number interval=100
** 
** HISTORY OUTPUT: H-Output-1
** 
*Output, history, variable=PRESELECT, number interval=100
*End Step
