*Heading
** Job name: WW_edgeshape_L08_t01 Model name: fv_edge_connect-modified-08
** Generated by: Abaqus/CAE 6.14-4
*Preprint, echo=NO, model=NO, history=NO, contact=NO
**
** PARTS
**
*Part, name=fv_edge
*Node
      1,  -4.56568527,          -4.,           0.
      2,          -4.,  -4.56568527,           0.
      3,  -3.71715736,  -4.28284264,           0.
      4,  -4.28284264,  -3.71715736,           0.
      5,   11.4343147,          -4.,           0.
      6,          12.,  -4.56568527,           0.
      7,   12.2828426,  -4.28284264,           0.
      8,   11.7171574,  -3.71715736,           0.
      9,   3.43431449,           4.,           0.
     10,           4.,   3.43431449,           0.
     11,   4.28284264,   3.71715736,           0.
     12,   3.71715736,   4.28284264,           0.
     13,  -4.56568527,          12.,           0.
     14,          -4.,   11.4343147,           0.
     15,  -3.71715736,   11.7171574,           0.
     16,  -4.28284264,   12.2828426,           0.
     17,   27.4343147,          -4.,           0.
     18,          28.,  -4.56568527,           0.
     19,   28.2828426,  -4.28284264,           0.
     20,   27.7171574,  -3.71715736,           0.
** ... 13962 like lines cut
*Element, type=S4R
1,   1, 775, 776,   4
2, 775,   2,   3, 776
3,   5, 777, 778,   8
4, 777,   6,   7, 778
5,   9, 779, 780,  12
6, 779,  10,  11, 780
7,  13, 781, 782,  16
8, 781,  14,  15, 782
 9,  17, 783, 784,  20
10, 783,  18,  19, 784
11,  21, 785, 786,  24
12, 785,  22,  23, 786
13,  25, 787, 788,  28
14, 787,  26,  27, 788
15,  29, 789, 790,  32
16, 789,  30,  31, 790
17,  33, 791, 792,  36
18, 791,  34,  35, 792
19,  37, 793, 792,  35
20, 793,  38,  36, 792
** ... 12771 like lines cut
*Element, type=S3
10285, 12030, 12029, 11985
10286, 11979, 11967, 12031
10287, 12027, 12009, 12012
10393, 12114, 12113, 12070
10394, 12068, 12052, 12115
10395, 12109, 12098, 12096
10500, 12144, 12133, 12202
10501, 12153, 12126, 12134
10502, 12182, 12190, 12188
10607, 12283, 12282, 12238
10608, 12235, 12220, 12284
10609, 12280, 12261, 12264
10715, 12368, 12367, 12323
10716, 12369, 12320, 12296
10717, 12365, 12347, 12349
10823, 12453, 12452, 12408
10824, 12454, 12403, 12390
10825, 12450, 12432, 12435
10931, 12538, 12537, 12492
10932, 12489, 12475, 12539
** ... 58 like lines cut
*Nset, nset=Set-1
     1,     2,     3,     4,     5,     6,     7,     8,     9,    12,    13,    14,    15,    16,    17,    18
    19,    20,    21,    24,    25,    26,    27,    28,    29,    32,    33,    34,    35,    36,    37,    38
    39,    40,    41,    42,    44,    46,    47,    50,    51,    52,    53,    54,    55,    58,    59,    60
    61,    62,    63,    66,    67,    70,    71,    72,    73,    74,    75,    78,    79,    82,    91,    92
    93,    94,    96,    97,   103,   104,   105,   106,   108,   109,   111,   112,   113,   114,   116,   117
   119,   120,   121,   122,   123,   126,   127,   128,   129,   130,   131,   134,   135,   136,   137,   138
   139,   140,   142,   143,   144,   146,   147,   148,   149,   150,   151,   152,   154,   155,   157,   158
   159,   160,   161,   162,   163,   164,   165,   166,   167,   168,   170,   171,   172,   174,   176,   177
   179,   180,   183,   185,   186,   187,   189,   190,   194,   218,   219,   220,   221,   222,   223,   224
   225,   226,   227,   228,   229,   230,   231,   232,   248,   249,   250,   251,   252,   253,   254,   255
   256,   257,   258,   259,   260,   261,   262,   267,   288,   289,   290,   291,   292,   293,   294,   295
   296,   297,   298,   299,   300,   301,   302,   303,   312,   313,   314,   315,   316,   317,   318,   319
   320,   321,   322,   323,   324,   325,   326,   342,   343,   344,   345,   346,   347,   348,   349,   351
   352,   353,   354,   355,   356,   357,   358,   368,   372,   386,   387,   388,   389,   390,   391,   392
   393,   394,   395,   396,   397,   398,   399,   400,   448,   449,   450,   451,   452,   453,   454,   455
   460,   473,   474,   475,   476,   477,   478,   479,   489,   490,   491,   492,   493,   494,   495,   496
   497,   498,   499,   500,   501,   502,   503,   512,   513,   514,   515,   516,   517,   518,   519,   528
   529,   530,   531,   532,   533,   534,   535,   536,   537,   538,   539,   540,   541,   542,   543,   544
   545,   546,   547,   548,   549,   550,   551,   552,   561,   562,   563,   564,   565,   566,   567,   568
   569,   580,   581,   582,   583,   584,   585,   586,   587,   588,   589,   590,   591,   592,   593,   594
** ... 341 like lines cut
*Elset, elset=Set-1
     1,     2,     3,     4,     7,     8,     9,    10,    13,    14,    17,    18,    19,    20,    21,    22
    23,    24,    31,    32,    35,    36,    41,    42,    51,    52,    57,    58,    61,    62,    65,    66
    69,    70,    73,    74,    75,    76,    79,    80,    83,    84,    85,    86,    89,    90,    91,    92
    93,    94,    95,    96,    99,   100,   107,   108,   113,   114,   117,   118,   628,   629,   630,   631
   632,   633,   634,   635,   636,   637,   638,   639,   640,   641,   642,   643,   644,   645,   646,   647
   648,   649,   650,   651,   652,   653,   654,   655,   656,   657,   658,   659,   660,   661,   662,   663
   664,   665,   666,   667,   668,   669,   670,   671,   672,   673,   674,   675,   676,   677,   678,   679
   680,   681,   682,   683,   684,   685,   686,   687,   688,   689,   690,   691,   692,   693,   694,   695
   696,   697,   698,   699,   700,   701,   702,   703,   704,   705,   706,   707,   708,   709,   710,   711
   712,   713,   714,   715,   716,   717,   718,   719,   720,   721,   722,   723,   724,   725,   726,   727
   728,   729,   730,   731,   732,   733,   734,   735,   736,   737,   738,   739,   740,   741,   742,   743
   744,   745,   746,   747,   748,   749,   750,   751,   752,   753,   754,   755,   756,   757,   758,   759
   760,   761,   762,   763,   764,   765,   766,   767,   768,   769,   770,   771,   772,   773,   774,   775
   776,   777,   778,   779,   780,   781,   782,   783,   784,   785,   786,   787,   788,   789,   790,   791
   792,   793,   794,   795,   796,   797,   798,   799,   800,   801,   802,   803,   804,   805,   806,   807
   808,   809,   810,   811,   812,   813,   814,   815,   816,   817,   818,   819,   820,   821,   822,   823
   824,   825,   826,   827,   828,   829,   830,   831,   832,   833,   834,   835,   836,   837,   838,   839
   840,   841,   842,   843,   844,   845,   846,   847,   848,   849,   850,   851,   852,   853,   854,   855
   856,   857,   858,   859,   860,   861,   862,   863,   864,   865,   866,   867,   868,   869,   870,   871
   872,   873,   874,   875,   876,   877,   878,   879,   880,   881,   882,   883,   884,   885,   886,   887
** ... 311 like lines cut
*Nset, nset=Set-2
     1,     2,     3,     4,     5,     6,     7,     8,     9,    10,    11,    12,    13,    14,    15,    16
    17,    18,    19,    20,    21,    22,    23,    24,    25,    26,    27,    28,    29,    30,    31,    32
    33,    34,    35,    36,    37,    38,    39,    40,    41,    42,    43,    44,    45,    46,    47,    48
    49,    50,    51,    52,    53,    54,    55,    56,    57,    58,    59,    60,    61,    62,    64,    65
    67,    68,    69,    70,    71,    72,    73,    74,    76,    77,    80,    81,    83,    84,    85,    86
    87,    88,    89,    90,    91,    92,    93,    94,    95,    96,    97,    98,    99,   100,   101,   102
   103,   104,   105,   106,   107,   108,   109,   110,   111,   112,   113,   114,   115,   116,   117,   118
   119,   122,   123,   124,   125,   126,   127,   128,   129,   130,   131,   132,   133,   134,   135,   136
   137,   138,   140,   141,   142,   143,   144,   145,   146,   147,   148,   150,   151,   153,   154,   155
   156,   157,   158,   159,   160,   162,   163,   165,   166,   167,   168,   169,   170,   171,   172,   173
   174,   175,   177,   178,   179,   180,   181,   182,   183,   184,   185,   186,   187,   188,   189,   190
   191,   192,   193,   194,   195,   196,   197,   198,   199,   200,   201,   202,   203,   204,   205,   206
   207,   208,   209,   210,   211,   212,   213,   214,   215,   216,   217,   218,   219,   220,   221,   222
   223,   224,   225,   226,   227,   228,   229,   230,   231,   232,   233,   234,   235,   236,   237,   238
   239,   240,   241,   242,   243,   244,   245,   246,   247,   248,   249,   250,   251,   252,   253,   254
   255,   256,   257,   258,   259,   260,   261,   262,   263,   264,   265,   266,   267,   268,   269,   270
   271,   272,   273,   274,   275,   276,   277,   278,   279,   280,   281,   282,   283,   284,   285,   286
   287,   288,   289,   290,   291,   292,   293,   294,   295,   296,   297,   298,   299,   300,   301,   302
   303,   304,   305,   306,   307,   308,   309,   310,   311,   312,   313,   314,   315,   316,   317,   318
   319,   320,   321,   322,   323,   324,   325,   326,   327,   328,   329,   330,   331,   332,   333,   334
** ... 767 like lines cut
*Elset, elset=Set-2
   121,   122,   123,   124,   125,   126,   127,   128,   129,   130,   131,   132,   133,   134,   135,   136
   137,   138,   139,   140,   141,   142,   143,   144,   145,   146,   147,   148,   149,   150,   151,   152
   153,   154,   155,   156,   157,   158,   159,   160,   161,   162,   163,   164,   165,   166,   167,   168
   169,   170,   171,   172,   173,   174,   175,   176,   177,   178,   179,   180,   181,   182,   183,   184
   185,   186,   187,   188,   189,   190,   191,   192,   193,   194,   195,   196,   197,   198,   199,   200
   201,   202,   203,   204,   205,   206,   207,   208,   209,   210,   211,   212,   213,   214,   215,   216
   217,   218,   219,   220,   221,   222,   223,   224,   225,   226,   227,   228,   229,   230,   231,   232
   233,   234,   235,   236,   237,   238,   239,   240,   241,   242,   243,   244,   245,   246,   247,   248
   249,   250,   251,   252,   253,   254,   255,   256,   257,   258,   259,   260,   261,   262,   263,   264
   265,   266,   267,   268,   269,   270,   271,   272,   273,   274,   275,   276,   277,   278,   279,   280
   281,   282,   283,   284,   285,   286,   287,   288,   289,   290,   291,   292,   293,   294,   295,   296
   297,   298,   299,   300,   301,   302,   303,   304,   305,   306,   307,   308,   309,   310,   311,   312
   313,   314,   315,   316,   317,   318,   319,   320,   321,   322,   323,   324,   325,   326,   327,   328
   329,   330,   331,   332,   333,   334,   335,   336,   337,   338,   339,   340,   341,   342,   343,   344
   345,   346,   347,   348,   349,   350,   351,   352,   353,   354,   355,   356,   357,   358,   359,   360
   361,   362,   363,   364,   365,   366,   367,   368,   369,   370,   371,   372,   373,   374,   375,   376
   377,   378,   379,   380,   381,   382,   383,   384,   385,   386,   387,   388,   389,   390,   391,   392
   393,   394,   395,   396,   397,   398,   399,   400,   401,   402,   403,   404,   405,   406,   407,   408
   409,   410,   411,   412,   413,   414,   415,   416,   417,   418,   419,   420,   421,   422,   423,   424
   425,   426,   427,   428,   429,   430,   431,   432,   433,   434,   435,   436,   437,   438,   439,   440
** ... 704 like lines cut
*Nset, nset=Set-3
     1,     2,     3,     4,     5,     6,     7,     8,     9,    10,    11,    12,    13,    14,    15,    16
    17,    18,    19,    20,    21,    22,    23,    24,    25,    26,    27,    28,    29,    30,    31,    32
    33,    34,    35,    36,    37,    38,    39,    40,    41,    42,    43,    44,    45,    46,    47,    48
    49,    50,    51,    52,    53,    54,    55,    56,    57,    58,    59,    60,    61,    62,    63,    64
    65,    66,    67,    68,    69,    70,    71,    72,    73,    74,    75,    76,    77,    78,    79,    80
    81,    82,    83,    84,    85,    86,    87,    88,    89,    90,    91,    92,    93,    94,    95,    96
    97,    98,    99,   100,   101,   102,   103,   104,   105,   106,   107,   108,   109,   110,   111,   112
   113,   114,   115,   116,   117,   118,   119,   120,   121,   122,   123,   124,   125,   126,   127,   128
   129,   130,   131,   132,   133,   134,   135,   136,   137,   138,   139,   140,   141,   142,   143,   144
   145,   146,   147,   148,   149,   150,   151,   152,   153,   154,   155,   156,   157,   158,   159,   160
   161,   162,   163,   164,   165,   166,   167,   168,   169,   170,   171,   172,   173,   174,   175,   176
   177,   178,   179,   180,   181,   182,   183,   184,   185,   186,   187,   188,   189,   190,   191,   192
   193,   194,   195,   196,   197,   198,   199,   200,   201,   202,   203,   204,   205,   206,   207,   208
   209,   210,   211,   212,   213,   214,   215,   216,   217,   218,   219,   220,   221,   222,   223,   224
   225,   226,   227,   228,   229,   230,   231,   232,   233,   234,   235,   236,   237,   238,   239,   240
   241,   242,   243,   244,   245,   246,   247,   248,   249,   250,   251,   252,   253,   254,   255,   256
   257,   258,   259,   260,   261,   262,   263,   264,   265,   266,   267,   268,   269,   270,   271,   272
   273,   274,   275,   276,   277,   278,   279,   280,   281,   282,   283,   284,   285,   286,   287,   288
   289,   290,   291,   292,   293,   294,   295,   296,   297,   298,   299,   300,   301,   302,   303,   304
   305,   306,   307,   308,   309,   310,   311,   312,   313,   314,   315,   316,   317,   318,   319,   320
** ... 848 like lines cut
*Elset, elset=Set-3
   121,   122,   123,   124,   125,   126,   127,   128,   129,   130,   131,   132,   133,   134,   135,   136
   137,   138,   139,   140,   141,   142,   143,   144,   145,   146,   147,   148,   149,   150,   151,   152
   153,   154,   155,   156,   157,   158,   159,   160,   161,   162,   163,   164,   165,   166,   167,   168
   169,   170,   171,   172,   173,   174,   175,   176,   177,   178,   179,   180,   181,   182,   183,   184
   185,   186,   187,   188,   189,   190,   191,   192,   193,   194,   195,   196,   197,   198,   199,   200
   201,   202,   203,   204,   205,   206,   207,   208,   209,   210,   211,   212,   213,   214,   215,   216
   217,   218,   219,   220,   221,   222,   223,   224,   225,   226,   227,   228,   229,   230,   231,   232
   233,   234,   235,   236,   237,   238,   239,   240,   241,   242,   243,   244,   245,   246,   247,   248
   249,   250,   251,   252,   253,   254,   255,   256,   257,   258,   259,   260,   261,   262,   263,   264
   265,   266,   267,   268,   269,   270,   271,   272,   273,   274,   275,   276,   277,   278,   279,   280
   281,   282,   283,   284,   285,   286,   287,   288,   289,   290,   291,   292,   293,   294,   295,   296
   297,   298,   299,   300,   301,   302,   303,   304,   305,   306,   307,   308,   309,   310,   311,   312
   313,   314,   315,   316,   317,   318,   319,   320,   321,   322,   323,   324,   325,   326,   327,   328
   329,   330,   331,   332,   333,   334,   335,   336,   337,   338,   339,   340,   341,   342,   343,   344
   345,   346,   347,   348,   349,   350,   351,   352,   353,   354,   355,   356,   357,   358,   359,   360
   361,   362,   363,   364,   365,   366,   367,   368,   369,   370,   371,   372,   373,   374,   375,   376
   377,   378,   379,   380,   381,   382,   383,   384,   385,   386,   387,   388,   389,   390,   391,   392
   393,   394,   395,   396,   397,   398,   399,   400,   401,   402,   403,   404,   405,   406,   407,   408
   409,   410,   411,   412,   413,   414,   415,   416,   417,   418,   419,   420,   421,   422,   423,   424
   425,   426,   427,   428,   429,   430,   431,   432,   433,   434,   435,   436,   437,   438,   439,   440
** ... 776 like lines cut
*Nset, nset=Set-4
    1,    2,    3,    4,    5,    6,    7,    8,    9,   10,   11,   12,   13,   14,   15,   16
   17,   18,   19,   20,   21,   22,   23,   24,   25,   26,   27,   28,   29,   30,   31,   32
   33,   34,   35,   36,   37,   38,   39,   40,   41,   42,   43,   44,   45,   46,   47,   48
   49,   50,   51,   52,   53,   54,   55,   56,   57,   58,   59,   60,   61,   62,   63,   64
   65,   66,   67,   68,   69,   70,   71,   72,   73,   74,   75,   76,   77,   78,   79,   80
   81,   82,   83,   84,   85,   86,   87,   88,   89,   90,   91,   92,   93,   94,   95,   96
   97,   98,   99,  100,  101,  102,  103,  104,  105,  106,  107,  108,  109,  110,  111,  112
  113,  114,  115,  116,  117,  118,  119,  120,  121,  122,  123,  124,  125,  126,  127,  128
  129,  130,  131,  132,  133,  134,  135,  136,  137,  138,  139,  140,  141,  142,  143,  144
  145,  146,  147,  148,  149,  150,  151,  152,  153,  154,  155,  156,  157,  158,  159,  160
  161,  162,  163,  164,  165,  166,  167,  168,  169,  170,  171,  172,  173,  174,  175,  176
  177,  178,  179,  180,  181,  182,  183,  184,  185,  186,  187,  188,  189,  190,  191,  192
  194,  267,  299,  350,  351,  368,  372,  451,  460,  484,  512,  539,  548,  556,  564,  569
  579,  580,  588,  589,  597,  598,  599,  608,  775,  776,  777,  778,  779,  780,  781,  782
  783,  784,  785,  786,  787,  788,  789,  790,  791,  792,  793,  794,  795,  796,  797,  798
  799,  800,  801,  802,  803,  804,  805,  806,  807,  808,  809,  810,  811,  812,  813,  814
  815,  816,  817,  818,  819,  820,  821,  822,  823,  824,  825,  826,  827,  828,  829,  830
  831,  832,  833,  834,  835,  836,  837,  838,  839,  840,  841,  842,  843,  844,  845,  846
  847,  848,  849,  850,  851,  852,  853,  854,  855,  856,  857,  858,  859,  860,  861,  862
  863,  864,  865,  866,  867,  868,  869,  870, 1573, 2359, 2400, 2429, 2458, 2498, 2515, 2532
 2533, 2549, 2566, 2691
*Elset, elset=Set-4
     1,     2,     3,     4,     5,     6,     7,     8,     9,    10,    11,    12,    13,    14,    15,    16
    17,    18,    19,    20,    21,    22,    23,    24,    25,    26,    27,    28,    29,    30,    31,    32
    33,    34,    35,    36,    37,    38,    39,    40,    41,    42,    43,    44,    45,    46,    47,    48
    49,    50,    51,    52,    53,    54,    55,    56,    57,    58,    59,    60,    61,    62,    63,    64
    65,    66,    67,    68,    69,    70,    71,    72,    73,    74,    75,    76,    77,    78,    79,    80
    81,    82,    83,    84,    85,    86,    87,    88,    89,    90,    91,    92,    93,    94,    95,    96
    97,    98,    99,   100,   101,   102,   103,   104,   105,   106,   107,   108,   109,   110,   111,   112
   113,   114,   115,   116,   117,   118,   119,   120,  3501,  3502,  7559,  7560,  7730,  7731,  7901,  7902
  8072,  8073,  8243,  8244,  8414,  8415,  8585,  8586,  8587,  8588,  8758,  8759,  8929,  8930, 10283, 10284
** Section: Section-2
*Shell Section, elset=Set-4, material=PLA
0.1, 5
** Section: Section-1
*Shell Section, elset=Set-3, composite
1., 3, PLA, 0., P1
1., 3, PLA, 90., P2
*End Part
**  
**
** ASSEMBLY
**
*Assembly, name=Assembly
**  
*Instance, name=fv_edge-1, part=fv_edge
*End Instance
**  
*Nset, nset=Set-80, instance=fv_edge-1
 760,
*Nset, nset=Set-81, instance=fv_edge-1
 728,
*Nset, nset=Set-82, instance=fv_edge-1
 716,
*Nset, nset=Set-83, instance=fv_edge-1
 707,
*Nset, nset=Set-84, instance=fv_edge-1
  137,  197,  200,  201,  202,  204,  209,  210,  213,  216,  217,  219,  224,  225,  228,  231
  232,  234,  239,  240,  243,  246,  247,  249,  254,  255,  258,  261,  262,  266,  270,  271
  272,  274,  279,  280,  283,  286,  287,  289,  294,  295,  298,  302,  303,  307,  310,  311
  313,  318,  319,  322,  325,  326,  328,  333,  334,  337,  340,  341,  343,  348,  349,  354
  357,  358,  360,  361,  366,  367,  371,  375,  376,  377,  381,  384,  385,  387,  392,  393
  396,  399,  400,  402,  407,  408,  411,  414,  415,  419,  422,  423,  425,  430,  431,  433
  438,  439,  440,  441,  446,  447,  448,  454,  455,  457,  463,  464,  465,  466,  471,  472
  473,  478,  479,  480,  481,  487,  488,  489,  494,  495,  497,  502,  503,  506,  509,  510
  511,  515,  518,  519,  522,  525,  526,  527,  530,  533,  534,  536,  542,  543,  545,  551
  552,  553,  559,  560,  561,  567,  568,  573,  576,  577,  578,  583,  586,  587,  592,  595
  596,  600,  601,  606,  607,  609,  614,  615,  618,  621,  622,  623,  626,  629,  630,  633
  636,  637,  638,  641,  644,  645,  648,  651,  652,  653,  654,  659,  660,  661,  666,  667
  670,  673,  674,  675,  678,  679,  682,  683,  684,  685,  690,  691,  694,  695,  698,  699
  702,  703,  706,  707,  710,  711,  714,  715,  716,  717,  720,  721,  724,  725,  728,  729
  732,  733,  736,  737,  740,  741,  744,  745,  748,  749,  752,  753,  758,  759,  760,  763
  764,  765,  766,  767,  772,  773,  774,  883,  884,  885,  886,  887,  888,  889,  890,  891
  892,  893,  894,  895,  896,  897,  934,  935,  936,  937,  938,  939,  940,  941,  942,  943
  944,  945,  946,  947,  948,  949,  962,  963,  964,  965,  966,  967,  968,  969,  970,  971
  972,  973,  974,  975,  976,  977, 1002, 1003, 1004, 1005, 1006, 1007, 1008, 1009, 1010, 1011
 1012, 1013, 1014, 1015, 1016, 1017, 1030, 1031, 1032, 1033, 1034, 1035, 1036, 1037, 1038, 1039
** ... 67 like lines cut
*Elset, elset=Set-84, instance=fv_edge-1
   185,   198,   211,   224,   237,   250,   263,   276,   281,   282,   283,   284,   285,   286,   287,   288
   289,   342,   355,   368,   381,   394,   407,   420,   433,   446,   447,   448,   449,   450,   451,   452
   453,   454,   523,   536,   549,   562,   575,   588,   601,   614,   619,   620,   621,   622,   623,   624
   625,   626,   627,   680,   693,   706,   719,   732,   745,   758,   771,   784,   785,   786,   787,   788
   789,   790,   791,   792,   861,   874,   887,   900,   913,   926,   939,   952,   957,   958,   959,   960
   961,   962,   963,   964,   965,  1018,  1031,  1044,  1057,  1070,  1083,  1096,  1109,  1122,  1123,  1124
  1125,  1126,  1127,  1128,  1129,  1130,  1199,  1212,  1225,  1238,  1251,  1264,  1277,  1290,  1295,  1296
  1297,  1298,  1299,  1300,  1301,  1302,  1303,  1356,  1369,  1382,  1395,  1408,  1421,  1434,  1447,  1460
  1461,  1462,  1463,  1464,  1465,  1466,  1467,  1468,  1537,  1550,  1563,  1576,  1589,  1602,  1615,  1628
  1633,  1634,  1635,  1636,  1637,  1638,  1639,  1640,  1641,  1706,  1719,  1732,  1745,  1758,  1771,  1784
  1797,  1802,  1803,  1804,  1805,  1806,  1807,  1808,  1809,  1810,  1863,  1876,  1889,  1902,  1915,  1928
  1941,  1954,  1967,  1968,  1969,  1970,  1971,  1972,  1973,  1974,  1975,  2044,  2057,  2070,  2083,  2096
  2109,  2122,  2135,  2140,  2141,  2142,  2143,  2144,  2145,  2146,  2147,  2148,  2201,  2214,  2227,  2240
  2253,  2266,  2279,  2292,  2305,  2306,  2307,  2308,  2309,  2310,  2311,  2312,  2313,  2382,  2395,  2408
  2421,  2434,  2447,  2460,  2473,  2478,  2479,  2480,  2481,  2482,  2483,  2484,  2485,  2486,  2551,  2564
  2577,  2590,  2603,  2616,  2629,  2642,  2647,  2648,  2649,  2650,  2651,  2652,  2653,  2654,  2655,  2708
  2721,  2734,  2747,  2760,  2773,  2786,  2799,  2812,  2813,  2814,  2815,  2816,  2817,  2818,  2819,  2820
  2889,  2902,  2915,  2928,  2941,  2954,  2967,  2980,  2985,  2986,  2987,  2988,  2989,  2990,  2991,  2992
  2993,  3046,  3059,  3072,  3085,  3098,  3111,  3124,  3137,  3150,  3151,  3152,  3153,  3154,  3155,  3156
  3157,  3158,  3227,  3240,  3253,  3266,  3279,  3292,  3305,  3318,  3323,  3324,  3325,  3326,  3327,  3328
** ... 58 like lines cut
*Nset, nset=Set-85, instance=fv_edge-1
     1,     2,     3,     4,     5,     6,     7,     8,     9,    10,    11,    12,    13,    14,    15,    16
    17,    18,    19,    20,    21,    22,    23,    24,    25,    26,    27,    28,    29,    30,    31,    32
    33,    34,    35,    36,    37,    38,    39,    40,    41,    42,    43,    44,    45,    46,    47,    48
    49,    50,    51,    52,    53,    54,    55,    56,    57,    58,    59,    60,    61,    62,    63,    64
    65,    66,    67,    68,    69,    70,    71,    72,    73,    74,    75,    76,    77,    78,    79,    80
    81,    82,    83,    84,    85,    86,    87,    88,    89,    90,    91,    92,    93,    94,    95,    96
    97,    98,    99,   100,   101,   102,   103,   104,   105,   106,   107,   108,   109,   110,   111,   112
   113,   114,   115,   116,   117,   118,   119,   120,   121,   122,   123,   124,   125,   126,   127,   128
   129,   130,   131,   132,   133,   134,   135,   136,   137,   138,   139,   140,   141,   142,   143,   144
   145,   146,   147,   148,   149,   150,   151,   152,   153,   154,   155,   156,   157,   158,   159,   160
   161,   162,   163,   164,   165,   166,   167,   168,   169,   170,   171,   172,   173,   174,   175,   176
   177,   178,   179,   180,   181,   182,   183,   184,   185,   186,   187,   188,   189,   190,   191,   192
   193,   194,   195,   196,   197,   198,   199,   200,   201,   202,   203,   204,   205,   206,   207,   208
   209,   210,   211,   212,   213,   214,   215,   216,   217,   218,   219,   220,   221,   222,   223,   224
   225,   226,   227,   228,   229,   230,   231,   232,   233,   234,   235,   236,   237,   238,   239,   240
   241,   242,   243,   244,   245,   246,   247,   248,   249,   250,   251,   252,   253,   254,   255,   256
   257,   258,   259,   260,   261,   262,   263,   264,   265,   266,   267,   268,   269,   270,   271,   272
   273,   274,   275,   276,   277,   278,   279,   280,   281,   282,   283,   284,   285,   286,   287,   288
   289,   290,   291,   292,   293,   294,   295,   296,   297,   298,   299,   300,   301,   302,   303,   304
   305,   306,   307,   308,   309,   310,   311,   312,   313,   314,   315,   316,   317,   318,   319,   320
** ... 850 like lines cut
*Elset, elset=Set-85, instance=fv_edge-1, generate
     1,  12869,      1
*Nset, nset=Set-86, instance=fv_edge-1, generate
     1,  13982,      1
*Elset, elset=Set-86, instance=fv_edge-1, generate
     1,  12869,      1
*End Assembly
*Amplitude, name=Amp-1, definition=SMOOTH STEP
             0.,             25.,             0.1,             55.
*Amplitude, name=Amp-2, definition=SMOOTH STEP
             0.,              0.,             0.5,              1.
*Amplitude, name=Amp-3
             0.,             25.,             0.5,             65.
*Amplitude, name=Amp-4
             0.,              0.,            0.25,              1.,             0.5,              0.
** 
** MATERIALS
** 
*Material, name=PLA
*Density
 1.25e-09,
*Elastic, type=LAMINA
 8.26, 6.608,  0.45,  0.79,  0.79,  0.79
*Expansion, type=ORTHO
 -0.00144675, 0.00017025,         0.
** 
** INTERACTION PROPERTIES
** 
*Surface Interaction, name=IntProp-1
1.,
*Friction
0.,
*Surface Behavior, pressure-overclosure=HARD
** 
** BOUNDARY CONDITIONS
** 
** Name: BC-5 Type: Displacement/Rotation
*Boundary
Set-80, 1, 1
Set-80, 2, 2
Set-80, 3, 3
** Name: BC-6 Type: Displacement/Rotation
*Boundary
Set-81, 2, 2
Set-81, 3, 3
** Name: BC-7 Type: Displacement/Rotation
*Boundary
Set-82, 1, 1
Set-82, 3, 3
** Name: BC-8 Type: Displacement/Rotation
*Boundary
Set-83, 3, 3
** 
** PREDEFINED FIELDS
** 
** Name: Predefined Field-7   Type: Temperature
*Initial Conditions, type=TEMPERATURE
Set-86, 25.
** ----------------------------------------------------------------
** 
** STEP: Step-1
** 
*Step, name=Step-1, nlgeom=YES, inc=1000
*Static
0.5, 0.5, 5e-06, 0.5
** 
** PREDEFINED FIELDS
** 
** Name: Predefined Field-7   Type: Temperature
*Temperature, amplitude=Amp-3
Set-86, 1.
** 
** OUTPUT REQUESTS
** 
*Restart, write, frequency=0
** 
** FIELD OUTPUT: F-Output-1
** 
*Output, field, variable=PRESELECT, number interval=100
** 
** HISTORY OUTPUT: H-Output-1
** 
*Output, history, variable=PRESELECT, number interval=100
*End Step
