*Heading
** Job name: Kresling_pattern Model name: fv_newpattern3
** Generated by: Abaqus/CAE 6.14-4
*Preprint, echo=NO, model=NO, history=NO, contact=NO
**
** PARTS
**
*Part, name=Part-5
*Node
      1,   49.4946213,  -52.0630112,           0.
      2,   49.4946213,  -51.6630096,           0.
      3,   48.6546211,  -51.6630096,           0.
      4,   48.6546211,  -52.0630112,           0.
      5,   50.1463051,  -50.9990005,           0.
      6,   49.7680969,  -50.8687744,           0.
      7,   49.7799377,  -52.0630112,           0.
      8,   54.5604591,  -36.9507408,           0.
      9,   54.8339386,  -36.1565056,           0.
     10,   53.9939384,  -36.1565056,           0.
     11,   39.2739372,  -36.1565056,           0.
     12,   33.3680992,  -50.8687744,           0.
     13,   38.1604614,  -36.9507408,           0.
     14,   38.4339371,  -36.1565056,           0.
     15,   33.9346199,  -51.6630096,           0.
     16,   33.0946198,  -51.6630096,           0.
     17,   32.2485237,  -52.0630112,           0.
     18,   32.2485237,  -51.6630096,           0.
     19,   31.4085236,  -51.6630096,           0.
     20,   31.4085236,  -52.0630112,           0.
** ... 6070 like lines cut
*Element, type=S4R
1, 1, 2, 3, 4
2,   5,   6,   2, 397
3, 397,   2,   1,   7
  4,    2,    6, 1406,    3
  5,    6,  398, 1407, 1406
  6,  398,  399, 1408, 1407
  7,  399,  400, 1409, 1408
  8,  400,  401, 1410, 1409
  9,  401,  402, 1411, 1410
 10,  402,  403, 1412, 1411
 11,  403,  404, 1413, 1412
 12,  404,  405, 1414, 1413
 13,  405,  406, 1415, 1414
 14,  406,  407, 1416, 1415
 15,  407,  408, 1417, 1416
 16,  408,  409, 1418, 1417
 17,  409,  410, 1419, 1418
 18,  410,  411, 1420, 1419
 19,  411,    8, 1421, 1420
 20,    8,    9,   10, 1421
** ... 5354 like lines cut
*Element, type=S3
5211,  233,   16,  232
5212, 6015, 6014,   16
5213, 6015,   16,   12
5214,  233,   15,   16
5220,  237,   29,   30
5221, 6018, 6017,   30
5222, 6018,   30,   26
5223,   30,  236,  237
5229, 6023,  242,  243
5230, 6020, 6021,    9
5231,  239,  243,   45
5232,  240, 6022,   54
5233, 6021,   10,    9
5234, 6022,   45,   54
5235, 6023,  243,  239
5242,  249,   23,   22
5243,  249,   22,  248
5244,  250,   55, 6028
5245,   55,  250,  251
5246,  253,   51,  252
** ... 143 like lines cut
*Nset, nset=Set-1
    2,    3,    6,    8,    9,   10,   11,   12,   13,   14,   15,   16,   18,   19,   21,   22
   23,   24,   25,   26,   27,   28,   29,   30,   32,   33,   35,   36,   37,   38,   39,   40
   41,   42,   43,   44,   45,   46,   47,   48,   49,   50,   51,   52,   53,   54,   55,   56
   57,   58,   59,   60,   61,   62,   63,   64,   65,   66,   67,   68,   69,   70,   71,   72
   73,   74,   75,   76,   77,   78,   79,   80,   81,   82,   83,   84,   85,   86,   87,   88
   89,   90,   91,   92,   93,   94,   95,   96,   97,   98,   99,  100,  101,  102,  103,  104
  105,  106,  107,  108,  109,  110,  111,  112,  113,  114,  115,  116,  118,  119,  121,  122
  123,  124,  125,  126,  127,  128,  129,  130,  132,  133,  135,  136,  137,  138,  139,  140
  141,  142,  143,  144,  146,  147,  149,  150,  151,  152,  153,  154,  155,  156,  157,  158
  159,  160,  161,  162,  163,  164,  165,  166,  167,  168,  169,  170,  171,  172,  173,  174
  175,  176,  177,  178,  179,  180,  181,  182,  183,  184,  185,  186,  187,  188,  189,  190
  191,  192,  193,  194,  195,  196,  197,  198,  199,  200,  201,  202,  203,  204,  205,  206
  207,  208,  209,  210,  211,  212,  213,  214,  215,  216,  217,  218,  219,  220,  221,  222
  223,  224,  225,  226,  227,  228,  229,  230,  398,  399,  400,  401,  402,  403,  404,  405
  406,  407,  408,  409,  410,  411,  412,  413,  414,  415,  416,  417,  418,  419,  420,  421
  422,  423,  424,  425,  426,  427,  428,  429,  430,  431,  432,  433,  434,  435,  436,  437
  438,  439,  440,  441,  442,  443,  444,  445,  446,  447,  448,  449,  450,  451,  452,  453
  454,  455,  456,  457,  458,  459,  460,  461,  462,  463,  464,  465,  466,  467,  468,  469
  470,  471,  472,  473,  474,  475,  476,  477,  478,  479,  480,  481,  482,  483,  484,  485
  486,  487,  488,  489,  490,  491,  492,  493,  494,  495,  496,  497,  498,  499,  500,  501
** ... 345 like lines cut
*Elset, elset=Set-1
    4,    5,    6,    7,    8,    9,   10,   11,   12,   13,   14,   15,   16,   17,   18,   19
   20,   21,   22,   23,   24,   25,   26,   27,   28,   29,   30,   31,   32,   33,   34,   35
   36,   37,   38,   39,   40,   41,   42,   43,   44,   45,   46,   47,   48,   49,   50,   51
   52,   53,   54,   55,   56,   57,   58,   59,   60,   61,   62,   63,   64,   65,   66,   67
   68,   69,   70,   71,   72,   73,   74,   75,   76,   77,   78,   79,   80,   81,   82,   83
   84,   85,   86,   87,   88,   89,   90,   91,   92,   93,   94,   95,   96,   97,   98,   99
  100,  101,  102,  103,  104,  105,  106,  107,  108,  109,  110,  111,  112,  113,  114,  115
  116,  117,  118,  119,  120,  121,  122,  123,  124,  125,  126,  127,  128,  129,  130,  131
  132,  133,  134,  135,  136,  137,  138,  139,  140,  141,  142,  143,  144,  145,  146,  147
  148,  149,  150,  151,  152,  153,  154,  155,  156,  157,  158,  159,  160,  161,  162,  163
  164,  165,  166,  167,  168,  169,  170,  171,  172,  173,  174,  175,  176,  177,  178,  179
  180,  181,  182,  183,  184,  185,  186,  187,  188,  189,  190,  191,  192,  193,  194,  195
  196,  197,  198,  199,  200,  201,  202,  203,  204,  205,  206,  207,  208,  209,  210,  211
  212,  213,  214,  215,  216,  217,  218,  219,  220,  221,  222,  223,  224,  225,  226,  227
  228,  229,  230,  231,  232,  233,  234,  235,  236,  237,  238,  239,  240,  241,  242,  243
  244,  245,  246,  247,  248,  249,  250,  251,  252,  253,  254,  255,  256,  257,  258,  259
  260,  261,  262,  263,  264,  265,  266,  267,  268,  269,  270,  271,  272,  273,  274,  275
  276,  277,  278,  279,  280,  281,  282,  283,  284,  285,  286,  287,  288,  289,  290,  291
  292,  294,  295,  296,  297,  298,  299,  300,  301,  302,  303,  304,  305,  306,  307,  308
  309,  310,  311,  312,  313,  314,  315,  316,  317,  318,  319,  320,  321,  322,  323,  324
** ... 306 like lines cut
*Nset, nset=Set-2
    1,    2,    3,    4,    5,    6,    7,    8,    9,   10,   11,   12,   13,   14,   15,   16
   17,   18,   19,   20,   21,   22,   23,   24,   25,   26,   27,   28,   29,   30,   31,   32
   33,   34,   35,   36,   37,   38,   39,   40,   41,   42,   43,   44,   45,   46,   47,   48
   49,   50,   51,   52,   53,   54,   55,   56,   57,   58,   59,   60,   61,   62,   63,   64
   65,   66,   67,   68,   69,   70,   71,   72,   73,   74,   75,   76,   77,   78,   79,   80
   81,   82,   83,   84,   85,   86,   87,   88,   89,   90,   91,   92,   93,   94,   95,   96
   97,   98,   99,  100,  101,  102,  103,  104,  105,  106,  107,  108,  109,  110,  111,  112
  113,  114,  115,  116,  117,  118,  119,  120,  121,  122,  123,  124,  125,  126,  127,  128
  129,  130,  131,  132,  133,  134,  135,  136,  137,  138,  139,  140,  141,  142,  143,  144
  145,  146,  147,  148,  149,  150,  151,  152,  153,  154,  155,  156,  157,  158,  159,  160
  161,  162,  163,  164,  165,  166,  167,  168,  169,  170,  171,  172,  173,  174,  175,  176
  177,  178,  179,  180,  181,  182,  183,  184,  185,  186,  187,  188,  189,  190,  191,  192
  193,  194,  195,  196,  197,  198,  199,  200,  201,  202,  203,  204,  205,  206,  207,  208
  209,  210,  211,  212,  213,  214,  215,  216,  217,  218,  219,  220,  221,  222,  223,  224
  225,  226,  227,  228,  229,  230,  231,  232,  233,  234,  235,  236,  237,  238,  239,  240
  241,  242,  243,  244,  245,  246,  247,  248,  249,  250,  251,  252,  253,  254,  255,  256
  257,  258,  259,  260,  261,  262,  263,  264,  265,  266,  267,  268,  269,  270,  271,  272
  273,  274,  275,  276,  277,  278,  279,  280,  281,  282,  283,  284,  285,  286,  287,  288
  289,  290,  291,  292,  293,  294,  295,  296,  297,  298,  299,  300,  301,  302,  303,  304
  305,  306,  307,  308,  309,  310,  311,  312,  313,  314,  315,  316,  317,  318,  319,  320
** ... 10 like lines cut
*Elset, elset=Set-2
    1,    2,    3,  293,  583, 2607, 2897, 3187, 5211, 5212, 5213, 5214, 5215, 5216, 5217, 5218
 5219, 5220, 5221, 5222, 5223, 5224, 5225, 5226, 5227, 5228, 5229, 5230, 5231, 5232, 5233, 5234
 5235, 5236, 5237, 5238, 5239, 5240, 5241, 5242, 5243, 5244, 5245, 5246, 5247, 5248, 5249, 5250
 5251, 5252, 5253, 5254, 5255, 5256, 5257, 5258, 5259, 5260, 5261, 5262, 5263, 5264, 5265, 5266
 5267, 5268, 5269, 5270, 5271, 5272, 5273, 5274, 5275, 5276, 5277, 5278, 5279, 5280, 5281, 5282
 5283, 5284, 5285, 5286, 5287, 5288, 5289, 5290, 5291, 5292, 5293, 5294, 5295, 5296, 5297, 5298
 5299, 5300, 5301, 5302, 5303, 5304, 5305, 5306, 5307, 5308, 5309, 5310, 5311, 5312, 5313, 5314
 5315, 5316, 5317, 5318, 5319, 5320, 5321, 5322, 5323, 5324, 5325, 5326, 5327, 5328, 5329, 5330
 5331, 5332, 5333, 5334, 5335, 5336, 5337, 5338, 5339, 5340, 5341, 5342, 5343, 5344, 5345, 5346
 5347, 5348, 5349, 5350, 5351, 5352, 5353, 5354, 5355, 5356, 5357, 5358, 5359, 5360, 5361, 5362
 5363, 5364, 5365, 5366, 5367, 5368, 5369, 5370, 5371, 5372, 5373, 5374, 5375, 5376, 5377, 5378
 5379, 5380, 5381, 5382, 5383, 5384, 5385, 5386, 5387, 5388, 5389, 5390, 5391, 5392, 5393, 5394
 5395, 5396, 5397, 5398, 5399, 5400, 5401, 5402, 5403, 5404, 5405, 5406, 5407, 5408, 5409, 5410
 5411, 5412, 5413, 5414, 5415, 5416, 5417, 5418, 5419, 5420, 5421, 5422, 5423, 5424, 5425, 5426
 5427, 5428, 5429, 5430, 5431, 5432, 5433, 5434, 5435, 5436, 5437, 5438, 5439, 5440, 5441, 5442
 5443, 5444, 5445, 5446, 5447, 5448, 5449, 5450, 5451, 5452, 5453, 5454, 5455, 5456, 5457, 5458
 5459, 5460, 5461, 5462, 5463, 5464, 5465, 5466, 5467, 5468, 5469, 5470, 5471, 5472, 5473, 5474
 5475, 5476, 5477, 5478, 5479, 5480, 5481, 5482, 5483, 5484, 5485, 5486, 5487, 5488, 5489, 5490
 5491, 5492, 5493, 5494, 5495, 5496, 5497, 5498, 5499, 5500, 5501, 5502, 5503, 5504, 5505, 5506
 5507, 5508, 5509, 5510, 5511, 5512, 5513, 5514, 5515, 5516, 5517, 5518, 5519, 5520, 5521, 5522
 5523, 5524, 5525, 5526, 5527, 5528, 5529, 5530, 5531, 5532, 5533, 5534, 5535, 5536, 5537
** Section: Section-2
*Shell Section, elset=Set-2, material=PLA
0.6, 5
** Section: Section-1
*Shell Section, elset=Set-1, composite
1., 3, PLA, 35.5, P1
1., 3, PLA, 125.5, P2
*End Part
**  
**
** ASSEMBLY
**
*Assembly, name=Assembly
**  
*Instance, name=Part-5-1, part=Part-5
*End Instance
**  
*Nset, nset=Set-90, instance=Part-5-1, generate
    1,  6090,     1
*Elset, elset=Set-90, instance=Part-5-1, generate
    1,  5537,     1
*End Assembly
*Amplitude, name=Amp-1, definition=SMOOTH STEP
             0.,             25.,             0.5,             65.
*Amplitude, name=Amp-2, definition=SMOOTH STEP
             0.,              0.,             0.5,              1.
*Amplitude, name=Amp-3
             0.,             25.,             0.5,             65.
*Amplitude, name=Amp-4
             0.,              0.,            0.25,              1.,             0.5,              0.
*Amplitude, name=Amp-5
             0.,              1.,             0.2,              0.,             0.5,              0.
*Amplitude, name=Amp-6
             0.,              0.,             0.5,              1.
** 
** MATERIALS
** 
*Material, name=PLA
*Density
 1.25e-09,
*Elastic, type=LAMINA
 8.26, 6.608,  0.45,  0.79,  0.79,  0.79
*Expansion, type=ORTHO
 -0.00144675, 0.00017025,         0.
** 
** INTERACTION PROPERTIES
** 
*Surface Interaction, name=IntProp-1
*Friction
0.,
*Surface Behavior, pressure-overclosure=HARD
** 
** PREDEFINED FIELDS
** 
** Name: Predefined Field-7   Type: Temperature
*Initial Conditions, type=TEMPERATURE
Set-90, 25.
** ----------------------------------------------------------------
** 
** STEP: Step-3
** 
*Step, name=Step-3, nlgeom=YES
*Dynamic, Explicit
, 0.5
*Bulk Viscosity
0.06, 1.2
** Mass Scaling: Semi-Automatic
**               Whole Model
*Fixed Mass Scaling, dt=1e-06, type=below min
** 
** PREDEFINED FIELDS
** 
** Name: Predefined Field-7   Type: Temperature
*Temperature, amplitude=Amp-1
Set-90, 1.
** 
** OUTPUT REQUESTS
** 
*Restart, write, number interval=1, time marks=NO
** 
** FIELD OUTPUT: F-Output-1
** 
*Output, field, number interval=100
*Node Output
A, AR, AT, U, UR, UT, V, VR
VT
*Element Output, directions=YES
CTSHR, E, EDCDEN, EDT, EFABRIC, ELEDEN, ELEN, ENER, ER, ERV, LE, MISES, MISESMAX, MISESONLY, NE, PE
PEEQ, PEEQMAX, PEEQT, PEEQVAVG, PEMAG, PEQC, PEVAVG, PRESSONLY, PS, S, SE, SFABRIC, SSAVG, SVAVG, TRIAX, TSHR
VE, VEEQ, VS
** 
** HISTORY OUTPUT: H-Output-1
** 
*Output, history
*Energy Output
ALLAE, ALLCD, ALLCW, ALLDC, ALLDMD, ALLFD, ALLIE, ALLKE, ALLMW, ALLPD, ALLPW, ALLSE, ALLVD, ALLWK, ETOTAL
*End Step
