*Heading
** Job name: Waterbomb_pattern Model name: fv_newpattern2
** Generated by: Abaqus/CAE 6.14-4
*Preprint, echo=NO, model=NO, history=NO, contact=NO
**
** PARTS
**
*Part, name=Part-3
*Node
      1,   154.861618,   245.138382,           0.
      2,   155.568726,    245.84549,           0.
      3,   151.414215,         250.,           0.
      4,         150.,         250.,           0.
      5,   195.974457,   197.388672,           0.
      6,   196.681564,   196.681564,           0.
      7,   199.292892,   199.292892,           0.
      8,   198.585785,         200.,           0.
      9,   197.388672,   195.974457,           0.
     10,         200.,   198.585785,           0.
     11,   202.611328,   195.974457,           0.
     12,   203.318436,   196.681564,           0.
     13,   200.707108,   199.292892,           0.
     14,   204.025543,   197.388672,           0.
     15,   201.414215,         200.,           0.
     16,    245.84549,   155.568726,           0.
     17,   245.138382,   154.861618,           0.
     18,         250.,         150.,           0.
     19,         250.,   151.414215,           0.
     20,   203.318436,   203.318436,           0.
** ... 24917 like lines cut
*Element, type=S4R
1,   1,   2, 353, 356
2, 356, 353, 354, 355
3, 355, 354,   3,   4
4,   5,   6, 357, 358
5, 358, 357,   7,   8
6,   6,   9, 359, 357
7, 357, 359,  10,   7
 8,  11,  12, 360, 361
 9, 361, 360,  13,  10
10,  12,  14, 362, 360
11, 360, 362,  15,  13
12,  16,  17, 363, 366
13, 366, 363, 364, 365
14, 365, 364,  18,  19
15,  20,  21, 367, 368
16, 368, 367,  22,  23
17,  24,  25, 369, 372
18, 372, 369, 370, 371
19, 371, 370,  26,  27
20,  28,  20, 368, 373
** ... 23374 like lines cut
*Element, type=S3
14917, 17782, 17400, 17379
14918, 17803, 17584, 17300
14919, 17599, 17819, 17589
14920, 17387, 17328, 17777
14921, 17213, 17782, 17379
14922, 17554, 17675, 17677
14923, 17660, 17605, 17628
14924, 17699, 17280, 17644
14925, 17795, 17575, 17257
14926, 17856, 17749, 17754
14927, 17305, 17845, 17683
14928, 17240, 17586, 17602
14929, 17691, 17723, 17250
15632, 18394, 17911, 18375
15633, 18274, 18482, 17925
15634, 18435, 18057, 18034
15635, 17954, 18435, 18034
15636, 18207, 18121, 18161
15637, 18490, 18360, 18334
15638, 17931, 18345, 18299
** ... 166 like lines cut
*Nset, nset=Set-1
     2,     3,     5,     8,     9,    10,    11,    14,    15,    16,    19,    21,    22,    24,    27,    28
    29,    30,    31,    34,    35,    38,    39,    40,    41,    44,    45,    46,    49,    51,    52,    54
    56,    57,    58,    59,    60,    61,    62,    63,    64,    67,    68,    71,    72,    73,    74,    77
    78,    81,    82,    83,    86,    88,    89,    91,    93,    94,    95,    96,    97,    98,    99,   100
   101,   104,   105,   106,   108,   109,   111,   114,   115,   116,   117,   120,   121,   123,   124,   126
   128,   129,   130,   131,   132,   133,   134,   135,   136,   139,   140,   143,   144,   145,   146,   149
   150,   152,   153,   155,   156,   157,   158,   159,   160,   161,   162,   163,   164,   165,   166,   167
   168,   171,   172,   175,   176,   177,   178,   181,   182,   185,   186,   188,   189,   191,   192,   193
   194,   195,   196,   197,   198,   199,   200,   201,   202,   203,   204,   208,   209,   210,   211,   214
   215,   216,   217,   220,   221,   222,   223,   226,   227,   229,   230,   232,   234,   235,   236,   237
   238,   239,   240,   241,   242,   245,   247,   248,   250,   252,   253,   256,   257,   258,   259,   262
   263,   265,   266,   268,   269,   270,   271,   272,   273,   274,   275,   276,   277,   278,   279,   280
   281,   284,   286,   287,   289,   291,   292,   295,   296,   297,   298,   301,   302,   305,   306,   308
   309,   311,   312,   313,   314,   315,   316,   317,   318,   319,   320,   321,   322,   323,   324,   328
   329,   330,   331,   332,   353,   354,   358,   359,   361,   362,   365,   366,   367,   371,   372,   373
   374,   375,   377,   378,   380,   381,   383,   384,   387,   388,   389,   391,   392,   393,   396,   397
   398,   399,   400,   401,   402,   403,   404,   405,   406,   407,   408,   409,   410,   411,   412,   413
   414,   415,   416,   417,   418,   419,   420,   421,   422,   423,   424,   425,   426,   427,   428,   429
   430,   431,   432,   433,   434,   435,   436,   437,   438,   439,   440,   441,   442,   443,   444,   445
   446,   447,   448,   449,   450,   451,   452,   453,   454,   455,   456,   457,   458,   459,   460,   461
** ... 1525 like lines cut
*Elset, elset=Set-1
    47,    48,    49,    50,    51,    52,    53,    54,    55,    56,    57,    58,    59,    60,    61,    62
    63,    64,    65,    66,    67,    68,    69,    70,    71,    72,    73,    74,    75,    76,    77,    78
    79,    80,    81,    82,    83,    84,    85,    86,    87,    88,    89,    90,    91,    92,    93,    94
    95,    96,    97,    98,    99,   100,   101,   102,   103,   104,   105,   106,   107,   108,   109,   110
   111,   112,   113,   114,   115,   116,   117,   118,   119,   120,   121,   122,   123,   124,   125,   126
   127,   128,   129,   130,   131,   132,   133,   134,   135,   136,   137,   138,   139,   140,   141,   142
   143,   144,   145,   146,   147,   148,   149,   150,   151,   152,   153,   154,   155,   156,   157,   158
   159,   160,   161,   162,   163,   164,   165,   166,   167,   168,   169,   170,   171,   172,   173,   174
   175,   176,   177,   178,   179,   180,   181,   182,   183,   184,   185,   186,   187,   188,   189,   190
   191,   192,   193,   194,   195,   196,   197,   198,   199,   200,   201,   202,   203,   204,   205,   206
   207,   208,   209,   210,   211,   212,   213,   214,   215,   216,   217,   218,   219,   220,   221,   222
   223,   224,   225,   226,   227,   228,   229,   230,   231,   232,   233,   234,   235,   236,   237,   238
   239,   240,   241,   242,   243,   244,   245,   246,   247,   248,   249,   250,   251,   252,   253,   254
   255,   256,   257,   258,   259,   260,   261,   262,   263,   264,   265,   266,   267,   268,   269,   270
   271,   272,   273,   274,   275,   276,   277,   278,   279,   280,   281,   282,   283,   284,   285,   286
   287,   288,   289,   290,   291,   292,   293,   294,   295,   296,   297,   298,   299,   300,   301,   302
   303,   304,   305,   306,   307,   308,   309,   310,   311,   312,   313,   314,   315,   316,   317,   318
   319,   320,   321,   322,   323,   324,   325,   326,   327,   328,   329,   330,   331,   332,   333,   334
   335,   336,   337,   338,   339,   340,   341,   342,   343,   344,   345,   346,   347,   348,   349,   350
   351,   352,   353,   354,   355,   356,   357,   358,   359,   360,   361,   362,   363,   364,   365,   366
** ... 1432 like lines cut
*Nset, nset=Set-2
    1,    2,    3,    4,    5,    6,    7,    8,    9,   10,   11,   12,   13,   14,   15,   16
   17,   18,   19,   20,   21,   22,   23,   24,   25,   26,   27,   28,   29,   30,   31,   32
   33,   34,   35,   36,   37,   38,   39,   40,   41,   42,   43,   44,   45,   46,   47,   48
   49,   50,   51,   52,   53,   54,   55,   56,   57,   58,   59,   60,   61,   62,   63,   64
   65,   66,   67,   68,   69,   70,   71,   72,   73,   74,   75,   76,   77,   78,   79,   80
   81,   82,   83,   84,   85,   86,   87,   88,   89,   90,   91,   92,   93,   94,   95,   96
   97,   98,   99,  100,  101,  102,  103,  104,  105,  106,  107,  108,  109,  110,  111,  112
  113,  114,  115,  116,  117,  118,  119,  120,  121,  122,  123,  124,  125,  126,  127,  128
  129,  130,  131,  132,  133,  134,  135,  136,  137,  138,  139,  140,  141,  142,  143,  144
  145,  146,  147,  148,  149,  150,  151,  152,  153,  154,  155,  156,  157,  158,  159,  160
  161,  162,  163,  164,  165,  166,  167,  168,  169,  170,  171,  172,  173,  174,  175,  176
  177,  178,  179,  180,  181,  182,  183,  184,  185,  186,  187,  188,  189,  190,  191,  192
  193,  194,  195,  196,  197,  198,  199,  200,  201,  202,  203,  204,  205,  206,  207,  208
  209,  210,  211,  212,  213,  214,  215,  216,  217,  218,  219,  220,  221,  222,  223,  224
  225,  226,  227,  228,  229,  230,  231,  232,  233,  234,  235,  236,  237,  238,  239,  240
  241,  242,  243,  244,  245,  246,  247,  248,  249,  250,  251,  252,  253,  254,  255,  256
  257,  258,  259,  260,  261,  262,  263,  264,  265,  266,  267,  268,  269,  270,  271,  272
  273,  274,  275,  276,  277,  278,  279,  280,  281,  282,  283,  284,  285,  286,  287,  288
  289,  290,  291,  292,  293,  294,  295,  296,  297,  298,  299,  300,  301,  302,  303,  304
  305,  306,  307,  308,  309,  310,  311,  312,  313,  314,  315,  316,  317,  318,  319,  320
** ... 23 like lines cut
*Elset, elset=Set-2
     1,     2,     3,     4,     5,     6,     7,     8,     9,    10,    11,    12,    13,    14,    15,    16
    17,    18,    19,    20,    21,    22,    23,    24,    25,    26,    27,    28,    29,    30,    31,    32
    33,    34,    35,    36,    37,    38,    39,    40,    41,    42,    43,    44,    45,    46,  1272,  1273
  1274,  1275,  1276,  1277,  1278,  1279,  1280,  1281,  1282,  1283,  1284,  1285,  1286,  1287,  1288,  1289
  1290,  1291,  1292,  1293,  1294,  1295,  1296,  2522,  2523,  2524,  2525,  2526,  2527,  2528,  2529,  2530
  2531,  2532,  2533,  2534,  2535,  2536,  2537,  2538,  2539,  2540,  2541,  2542,  2543,  2544,  2545,  2546
  3772,  3773,  3774,  3775,  3776,  3777,  3778,  3779,  3780,  3781,  3782,  3783,  3784,  3785,  3786,  3787
  6238,  6239,  6240,  6241,  6242,  6243,  6244,  6245,  6246,  6247,  6248,  6249,  6250,  6251,  6252,  6253
  6254,  6255,  6256,  8707,  8708,  8709,  8710,  8711,  8712,  8713,  8714,  8715,  8716,  8717,  8718,  8719
  8720,  8721,  8722,  8723,  8724,  8725,  8726,  8727,  8728,  8729,  8730,  8731,  8732,  8733,  8734,  9960
  9961,  9962,  9963,  9964,  9965,  9966,  9967,  9968,  9969,  9970,  9971,  9972,  9973,  9974,  9975,  9976
  9977,  9978,  9979,  9980,  9981, 12432, 12433, 12434, 12435, 12436, 12437, 12438, 12439, 12440, 12441, 12442
 12443, 12444, 12445, 12446, 12447, 12448, 12449, 12450, 12451, 12452, 12453, 12454, 12455, 12456, 14907, 14908
 14909, 14910, 14911, 14912, 14913, 14914, 14915, 14916, 16326, 16327, 16328, 16329, 16330, 16331, 16332, 16333
 16334, 16335, 16336, 16337, 17048, 17049, 17050, 17051, 17052, 17053, 17054, 17055, 17056, 17057, 17058, 17059
 18475, 18476, 18477, 18478, 18479, 18480, 18481, 18482, 18483, 18484, 18485, 18486, 19199, 19200, 19201, 19202
 19203, 19204, 19205, 19206, 19207, 19208, 19209, 19210, 19211, 19212, 19213, 19214, 19215, 19216, 19217, 19218
 19219, 19220, 19221, 19222, 19223, 19224, 19225, 19226, 19227, 19228, 19229, 19230, 19231, 19232, 19233, 19234
 19235, 19236, 19237, 19238, 19239, 19240, 19241, 19242, 19243, 19244, 19245, 19246, 19954, 19955, 19956, 19957
 19958, 19959, 19960, 19961, 19962, 19963, 19964, 19965, 21375, 21376, 21377, 21378, 21379, 21380, 21381, 21382
 21383, 21384, 21385, 21386, 21387, 21388, 21389, 21390, 21391, 21392, 21393, 21394, 21395, 21396, 21397, 21398
 22117, 22118, 22119, 22120, 22121, 22122, 22123, 22124, 22125, 22126, 22127, 22128, 22129, 22130, 22131, 22132
 22133, 22134, 22135, 22136, 22137, 22138, 22139, 22140
*Nset, nset=Set-3
     2,     3,     9,    10,    11,    21,    22,    24,    27,    31,    39,    40,    41,    51,    52,    58
    59,    60,    61,    62,    63,    64,    72,    73,    74,    77,    78,    88,    89,    95,    96,    97
    98,    99,   100,   101,   104,   105,   108,   109,   115,   116,   117,   123,   124,   126,   128,   136
   144,   145,   146,   152,   153,   162,   163,   164,   165,   166,   167,   168,   176,   177,   178,   181
   182,   188,   189,   198,   199,   200,   201,   202,   203,   204,   208,   209,   215,   216,   221,   222
   223,   229,   230,   232,   234,   242,   257,   258,   259,   265,   266,   275,   276,   277,   278,   279
   280,   281,   296,   297,   298,   301,   302,   308,   309,   318,   319,   320,   321,   322,   323,   324
   328,   329,   353,   354,   359,   361,   367,   371,   372,   377,   381,   383,   389,   396,   397,   398
   399,   400,   401,   402,   403,   404,   405,   406,   407,   408,   409,   410,   411,   412,   413,   414
   415,   416,   417,   418,   419,   420,   421,   422,   423,   424,   425,   426,   427,   428,   429,   430
   431,   432,   433,   434,   435,   436,   437,   438,   439,   440,   441,   442,   443,   444,   445,   446
   447,   448,   449,   450,   451,   452,   453,   454,   455,   456,   457,   458,   459,   460,   461,   462
   463,   464,   465,   466,   467,   468,   469,   470,   471,   472,   473,   474,   475,   476,   477,   478
   479,   480,   481,   482,   483,   484,   485,   486,   487,   488,   489,   490,   491,   492,   493,   494
   495,   496,   497,   498,   499,   500,   501,   502,   503,   504,   505,   506,   507,   508,   509,   510
   511,   512,   513,   514,   515,   516,   517,   518,   519,   520,   525,   528,   529,   531,   537,   544
   545,   546,   547,   548,   549,   550,   551,   552,   553,   554,   555,   556,   557,   558,   559,   560
   561,   562,   563,   564,   565,   566,   567,   568,   569,   570,   571,   572,   573,   574,   575,   576
   577,   578,   579,   580,   581,   582,   583,   584,   585,   586,   587,   588,   589,   590,   591,   592
   593,   594,   595,   596,   597,   598,   599,   600,   601,   602,   603,   604,   605,   606,   607,   608
** ... 752 like lines cut
*Elset, elset=Set-3
    47,    48,    49,    50,    51,    52,    53,    54,    55,    56,    57,    58,    59,    60,    61,    62
    63,    64,    65,    66,    67,    68,    69,    70,    71,    72,    73,    74,    75,    76,    77,    78
    79,    80,    81,    82,    83,    84,    85,    86,    87,    88,    89,    90,    91,    92,    93,    94
    95,    96,    97,    98,    99,   100,   101,   102,   103,   104,   105,   106,   107,   108,   109,   110
   111,   112,   113,   114,   115,   116,   117,   118,   119,   120,   121,   122,   123,   124,   125,   126
   127,   128,   129,   130,   131,   132,   133,   134,   135,   136,   137,   138,   139,   140,   141,   142
   143,   144,   145,   146,   147,   148,   149,   150,   151,   152,   153,   154,   155,   156,   157,   158
   159,   160,   161,   162,   163,   164,   165,   166,   167,   168,   169,   170,   171,   172,   173,   174
   175,   176,   177,   178,   179,   180,   181,   182,   183,   184,   185,   186,   187,   188,   189,   190
   191,   192,   193,   194,   195,   196,   197,   198,   199,   200,   201,   202,   203,   204,   205,   206
   207,   208,   209,   210,   211,   212,   213,   214,   215,   216,   217,   218,   219,   220,   221,   222
   223,   224,   225,   226,   227,   228,   229,   230,   231,   232,   233,   234,   235,   236,   237,   238
   239,   240,   241,   242,   243,   244,   245,   246,   247,   248,   249,   250,   251,   252,   253,   254
   255,   256,   257,   258,   259,   260,   261,   262,   263,   264,   265,   266,   267,   268,   269,   270
   271,   272,   273,   274,   275,   276,   277,   278,   279,   280,   281,   282,   283,   284,   285,   286
   287,   288,   289,   290,   291,   292,   293,   294,   295,   296,   297,   298,   299,   300,   301,   302
   303,   304,   305,   306,   307,   308,   309,   310,   311,   312,   313,   314,   315,   316,   317,   318
   319,   320,   321,   322,   323,   324,   325,   326,   327,   328,   329,   330,   331,   332,   333,   334
   335,   336,   337,   338,   339,   340,   341,   342,   343,   344,   345,   346,   347,   348,   349,   350
   351,   352,   353,   354,   355,   356,   357,   358,   359,   360,   361,   362,   363,   364,   365,   366
** ... 705 like lines cut
*Nset, nset=Set-4
     5,     8,    14,    15,    16,    19,    28,    29,    30,    34,    35,    38,    44,    45,    46,    49
    54,    56,    57,    67,    68,    71,    81,    82,    83,    86,    91,    93,    94,   106,   111,   114
   120,   121,   129,   130,   131,   132,   133,   134,   135,   139,   140,   143,   149,   150,   155,   156
   157,   158,   159,   160,   161,   171,   172,   175,   185,   186,   191,   192,   193,   194,   195,   196
   197,   210,   211,   214,   217,   220,   226,   227,   235,   236,   237,   238,   239,   240,   241,   245
   247,   248,   250,   252,   253,   256,   262,   263,   268,   269,   270,   271,   272,   273,   274,   284
   286,   287,   289,   291,   292,   295,   305,   306,   311,   312,   313,   314,   315,   316,   317,   330
   331,   332,   358,   362,   365,   366,   373,   374,   375,   378,   380,   384,   387,   388,   391,   392
   393,   522,   524,   532,   535,   536,   539,   540,   541,   672,   678,   682,   689,   690,   691,   692
   693,   694,   695,   696,   697,   698,   699,   700,   701,   702,   703,   704,   705,   706,   707,   708
   709,   710,   711,   712,   713,   714,   715,   716,   717,   718,   719,   720,   721,   722,   723,   724
   725,   726,   727,   728,   729,   730,   731,   732,   733,   734,   735,   736,   737,   738,   739,   740
   741,   742,   743,   744,   745,   746,   747,   748,   749,   750,   751,   752,   753,   754,   755,   756
   757,   758,   759,   760,   761,   762,   763,   764,   765,   766,   767,   768,   769,   770,   771,   772
   773,   774,   775,   776,   777,   778,   779,   780,   781,   782,   783,   784,   785,   786,   787,   788
   789,   790,   791,   792,   793,   794,   795,   796,   797,   798,   799,   800,   801,   802,   803,   804
   805,   806,   807,   808,   809,   810,   811,   812,   813,   816,   818,   822,   825,   826,   827,   828
   829,   830,   831,   832,   833,   834,   835,   836,   837,   838,   839,   840,   841,   842,   843,   844
   845,   846,   847,   848,   849,   850,   851,   852,   853,   854,   855,   856,   857,   858,   859,   860
   861,   862,   863,   864,   865,   866,   867,   868,   869,   870,   871,   872,   873,   874,   875,   876
** ... 753 like lines cut
*Elset, elset=Set-4
  2547,  2548,  2549,  2550,  2551,  2552,  2553,  2554,  2555,  2556,  2557,  2558,  2559,  2560,  2561,  2562
  2563,  2564,  2565,  2566,  2567,  2568,  2569,  2570,  2571,  2572,  2573,  2574,  2575,  2576,  2577,  2578
  2579,  2580,  2581,  2582,  2583,  2584,  2585,  2586,  2587,  2588,  2589,  2590,  2591,  2592,  2593,  2594
  2595,  2596,  2597,  2598,  2599,  2600,  2601,  2602,  2603,  2604,  2605,  2606,  2607,  2608,  2609,  2610
  2611,  2612,  2613,  2614,  2615,  2616,  2617,  2618,  2619,  2620,  2621,  2622,  2623,  2624,  2625,  2626
  2627,  2628,  2629,  2630,  2631,  2632,  2633,  2634,  2635,  2636,  2637,  2638,  2639,  2640,  2641,  2642
  2643,  2644,  2645,  2646,  2647,  2648,  2649,  2650,  2651,  2652,  2653,  2654,  2655,  2656,  2657,  2658
  2659,  2660,  2661,  2662,  2663,  2664,  2665,  2666,  2667,  2668,  2669,  2670,  2671,  2672,  2673,  2674
  2675,  2676,  2677,  2678,  2679,  2680,  2681,  2682,  2683,  2684,  2685,  2686,  2687,  2688,  2689,  2690
  2691,  2692,  2693,  2694,  2695,  2696,  2697,  2698,  2699,  2700,  2701,  2702,  2703,  2704,  2705,  2706
  2707,  2708,  2709,  2710,  2711,  2712,  2713,  2714,  2715,  2716,  2717,  2718,  2719,  2720,  2721,  2722
  2723,  2724,  2725,  2726,  2727,  2728,  2729,  2730,  2731,  2732,  2733,  2734,  2735,  2736,  2737,  2738
  2739,  2740,  2741,  2742,  2743,  2744,  2745,  2746,  2747,  2748,  2749,  2750,  2751,  2752,  2753,  2754
  2755,  2756,  2757,  2758,  2759,  2760,  2761,  2762,  2763,  2764,  2765,  2766,  2767,  2768,  2769,  2770
  2771,  2772,  2773,  2774,  2775,  2776,  2777,  2778,  2779,  2780,  2781,  2782,  2783,  2784,  2785,  2786
  2787,  2788,  2789,  2790,  2791,  2792,  2793,  2794,  2795,  2796,  2797,  2798,  2799,  2800,  2801,  2802
  2803,  2804,  2805,  2806,  2807,  2808,  2809,  2810,  2811,  2812,  2813,  2814,  2815,  2816,  2817,  2818
  2819,  2820,  2821,  2822,  2823,  2824,  2825,  2826,  2827,  2828,  2829,  2830,  2831,  2832,  2833,  2834
  2835,  2836,  2837,  2838,  2839,  2840,  2841,  2842,  2843,  2844,  2845,  2846,  2847,  2848,  2849,  2850
  2851,  2852,  2853,  2854,  2855,  2856,  2857,  2858,  2859,  2860,  2861,  2862,  2863,  2864,  2865,  2866
** ... 707 like lines cut
*Nset, nset=Set-5
     2,     3,     5,     8,    21,    22,    24,    27,    31,    34,    68,    71,    72,    73,    74,    77
    78,   104,   105,   106,   108,   109,   111,   114,   115,   116,   117,   120,   121,   123,   124,   126
   128,   129,   130,   131,   132,   133,   134,   135,   136,   139,   144,   145,   146,   152,   153,   162
   163,   164,   165,   166,   167,   168,   172,   175,   176,   177,   178,   181,   182,   185,   186,   188
   189,   191,   192,   193,   194,   195,   196,   197,   198,   199,   200,   201,   202,   203,   204,   208
   209,   210,   215,   216,   226,   227,   229,   230,   232,   234,   235,   236,   237,   238,   239,   240
   241,   242,   296,   297,   298,   301,   302,   305,   306,   311,   312,   313,   314,   315,   316,   317
   328,   329,   353,   354,   358,   367,   371,   372,   377,   378,   524,   525,   528,   529,   531,   670
   671,   672,   673,   674,   678,   679,   681,   682,   683,   687,   688,   689,   690,   691,   692,   693
   694,   695,   696,   697,   698,   699,   700,   701,   702,   703,   704,   705,   706,   707,   708,   709
   710,   711,   712,   713,   714,   715,   716,   717,   718,   719,   720,   721,   722,   723,   724,   725
   726,   727,   728,   729,   730,   731,   732,   733,   734,   735,   736,   737,   738,   739,   740,   741
   742,   743,   744,   745,   746,   747,   748,   749,   750,   751,   752,   753,   754,   755,   756,   757
   758,   759,   760,   761,   762,   763,   764,   765,   766,   767,   768,   769,   770,   771,   772,   773
   774,   775,   776,   777,   778,   779,   780,   781,   782,   783,   784,   785,   786,   787,   788,   789
   790,   791,   792,   793,   794,   795,   796,   797,   798,   799,   800,   801,   802,   803,   804,   805
   806,   807,   808,   809,   810,   811,   812,   813,   815,   816,   819,   821,   823,   950,   951,   952
   953,   954,   955,   956,   957,   958,   959,   960,   961,   962,   963,   964,   965,   966,   967,   968
   969,   970,   971,   972,   973,   974,   975,   976,   977,   978,   979,   980,   981,   982,   983,   984
   985,   986,   987,   988,   989,   990,   991,   992,   993,   994,   995,   996,   997,   998,   999,  1000
** ... 752 like lines cut
*Elset, elset=Set-5
  2547,  2548,  2549,  2550,  2551,  2552,  2553,  2554,  2555,  2556,  2557,  2558,  2559,  2560,  2561,  2562
  2563,  2564,  2565,  2566,  2567,  2568,  2569,  2570,  2571,  2572,  2573,  2574,  2575,  2576,  2577,  2578
  2579,  2580,  2581,  2582,  2583,  2584,  2585,  2586,  2587,  2588,  2589,  2590,  2591,  2592,  2593,  2594
  2595,  2596,  2597,  2598,  2599,  2600,  2601,  2602,  2603,  2604,  2605,  2606,  2607,  2608,  2609,  2610
  2611,  2612,  2613,  2614,  2615,  2616,  2617,  2618,  2619,  2620,  2621,  2622,  2623,  2624,  2625,  2626
  2627,  2628,  2629,  2630,  2631,  2632,  2633,  2634,  2635,  2636,  2637,  2638,  2639,  2640,  2641,  2642
  2643,  2644,  2645,  2646,  2647,  2648,  2649,  2650,  2651,  2652,  2653,  2654,  2655,  2656,  2657,  2658
  2659,  2660,  2661,  2662,  2663,  2664,  2665,  2666,  2667,  2668,  2669,  2670,  2671,  2672,  2673,  2674
  2675,  2676,  2677,  2678,  2679,  2680,  2681,  2682,  2683,  2684,  2685,  2686,  2687,  2688,  2689,  2690
  2691,  2692,  2693,  2694,  2695,  2696,  2697,  2698,  2699,  2700,  2701,  2702,  2703,  2704,  2705,  2706
  2707,  2708,  2709,  2710,  2711,  2712,  2713,  2714,  2715,  2716,  2717,  2718,  2719,  2720,  2721,  2722
  2723,  2724,  2725,  2726,  2727,  2728,  2729,  2730,  2731,  2732,  2733,  2734,  2735,  2736,  2737,  2738
  2739,  2740,  2741,  2742,  2743,  2744,  2745,  2746,  2747,  2748,  2749,  2750,  2751,  2752,  2753,  2754
  2755,  2756,  2757,  2758,  2759,  2760,  2761,  2762,  2763,  2764,  2765,  2766,  2767,  2768,  2769,  2770
  2771,  2772,  2773,  2774,  2775,  2776,  2777,  2778,  2779,  2780,  2781,  2782,  2783,  2784,  2785,  2786
  2787,  2788,  2789,  2790,  2791,  2792,  2793,  2794,  2795,  2796,  2797,  2798,  2799,  2800,  2801,  2802
  2803,  2804,  2805,  2806,  2807,  2808,  2809,  2810,  2811,  2812,  2813,  2814,  2815,  2816,  2817,  2818
  2819,  2820,  2821,  2822,  2823,  2824,  2825,  2826,  2827,  2828,  2829,  2830,  2831,  2832,  2833,  2834
  2835,  2836,  2837,  2838,  2839,  2840,  2841,  2842,  2843,  2844,  2845,  2846,  2847,  2848,  2849,  2850
  2851,  2852,  2853,  2854,  2855,  2856,  2857,  2858,  2859,  2860,  2861,  2862,  2863,  2864,  2865,  2866
** ... 705 like lines cut
*Nset, nset=Set-6
     9,    10,    11,    14,    15,    16,    19,    28,    29,    30,    35,    38,    39,    40,    41,    44
    45,    46,    49,    51,    52,    54,    56,    57,    58,    59,    60,    61,    62,    63,    64,    67
    81,    82,    83,    86,    88,    89,    91,    93,    94,    95,    96,    97,    98,    99,   100,   101
   140,   143,   149,   150,   155,   156,   157,   158,   159,   160,   161,   171,   211,   214,   217,   220
   221,   222,   223,   245,   247,   248,   250,   252,   253,   256,   257,   258,   259,   262,   263,   265
   266,   268,   269,   270,   271,   272,   273,   274,   275,   276,   277,   278,   279,   280,   281,   284
   286,   287,   289,   291,   292,   295,   308,   309,   318,   319,   320,   321,   322,   323,   324,   330
   331,   332,   359,   361,   362,   365,   366,   373,   374,   375,   380,   381,   383,   384,   387,   388
   389,   391,   392,   393,   396,   397,   398,   399,   400,   401,   402,   403,   404,   405,   406,   407
   408,   409,   410,   411,   412,   413,   414,   415,   416,   417,   418,   419,   420,   421,   422,   423
   424,   425,   426,   427,   428,   429,   430,   431,   432,   433,   434,   435,   436,   437,   438,   439
   440,   441,   442,   443,   444,   445,   446,   447,   448,   449,   450,   451,   452,   453,   454,   455
   456,   457,   458,   459,   460,   461,   462,   463,   464,   465,   466,   467,   468,   469,   470,   471
   472,   473,   474,   475,   476,   477,   478,   479,   480,   481,   482,   483,   484,   485,   486,   487
   488,   489,   490,   491,   492,   493,   494,   495,   496,   497,   498,   499,   500,   501,   502,   503
   504,   505,   506,   507,   508,   509,   510,   511,   512,   513,   514,   515,   516,   517,   518,   519
   520,   522,   532,   535,   536,   537,   539,   540,   541,   544,   545,   546,   547,   548,   549,   550
   551,   552,   553,   554,   555,   556,   557,   558,   559,   560,   561,   562,   563,   564,   565,   566
   567,   568,   569,   570,   571,   572,   573,   574,   575,   576,   577,   578,   579,   580,   581,   582
   583,   584,   585,   586,   587,   588,   589,   590,   591,   592,   593,   594,   595,   596,   597,   598
** ... 753 like lines cut
*Elset, elset=Set-6
    47,    48,    49,    50,    51,    52,    53,    54,    55,    56,    57,    58,    59,    60,    61,    62
    63,    64,    65,    66,    67,    68,    69,    70,    71,    72,    73,    74,    75,    76,    77,    78
    79,    80,    81,    82,    83,    84,    85,    86,    87,    88,    89,    90,    91,    92,    93,    94
    95,    96,    97,    98,    99,   100,   101,   102,   103,   104,   105,   106,   107,   108,   109,   110
   111,   112,   113,   114,   115,   116,   117,   118,   119,   120,   121,   122,   123,   124,   125,   126
   127,   128,   129,   130,   131,   132,   133,   134,   135,   136,   137,   138,   139,   140,   141,   142
   143,   144,   145,   146,   147,   148,   149,   150,   151,   152,   153,   154,   155,   156,   157,   158
   159,   160,   161,   162,   163,   164,   165,   166,   167,   168,   169,   170,   171,   172,   173,   174
   175,   176,   177,   178,   179,   180,   181,   182,   183,   184,   185,   186,   187,   188,   189,   190
   191,   192,   193,   194,   195,   196,   197,   198,   199,   200,   201,   202,   203,   204,   205,   206
   207,   208,   209,   210,   211,   212,   213,   214,   215,   216,   217,   218,   219,   220,   221,   222
   223,   224,   225,   226,   227,   228,   229,   230,   231,   232,   233,   234,   235,   236,   237,   238
   239,   240,   241,   242,   243,   244,   245,   246,   247,   248,   249,   250,   251,   252,   253,   254
   255,   256,   257,   258,   259,   260,   261,   262,   263,   264,   265,   266,   267,   268,   269,   270
   271,   272,   273,   274,   275,   276,   277,   278,   279,   280,   281,   282,   283,   284,   285,   286
   287,   288,   289,   290,   291,   292,   293,   294,   295,   296,   297,   298,   299,   300,   301,   302
   303,   304,   305,   306,   307,   308,   309,   310,   311,   312,   313,   314,   315,   316,   317,   318
   319,   320,   321,   322,   323,   324,   325,   326,   327,   328,   329,   330,   331,   332,   333,   334
   335,   336,   337,   338,   339,   340,   341,   342,   343,   344,   345,   346,   347,   348,   349,   350
   351,   352,   353,   354,   355,   356,   357,   358,   359,   360,   361,   362,   363,   364,   365,   366
** ... 707 like lines cut
*Nset, nset=Set-7
     5,     8,    14,    15,    16,    19,    28,    29,    30,    34,    44,    45,    46,    49,    54,    56
    57,    68,    71,    81,    82,    83,    86,    91,    93,    94,   106,   111,   114,   115,   116,   117
   120,   121,   129,   130,   131,   132,   133,   134,   135,   139,   144,   145,   146,   152,   153,   162
   163,   164,   165,   166,   167,   168,   172,   175,   185,   186,   188,   189,   191,   192,   193,   194
   195,   196,   197,   198,   199,   200,   201,   202,   203,   204,   210,   211,   214,   217,   220,   226
   227,   235,   236,   237,   238,   239,   240,   241,   245,   247,   248,   250,   252,   253,   256,   284
   286,   287,   289,   291,   292,   295,   305,   306,   311,   312,   313,   314,   315,   316,   317,   330
   331,   332,   358,   362,   365,   366,   373,   374,   375,   378,   384,   387,   388,   391,   392,   393
   524,   532,   535,   536,   539,   540,   541,   672,   678,   679,   681,   682,   689,   690,   691,   692
   693,   694,   695,   696,   697,   698,   699,   700,   701,   702,   703,   704,   705,   706,   707,   708
   709,   710,   711,   712,   713,   714,   715,   716,   717,   718,   719,   720,   721,   722,   723,   724
   725,   726,   727,   728,   729,   730,   731,   732,   733,   734,   735,   736,   737,   738,   739,   740
   741,   742,   743,   744,   745,   746,   747,   748,   749,   750,   751,   752,   753,   754,   755,   756
   757,   758,   759,   760,   761,   762,   763,   764,   765,   766,   767,   768,   769,   770,   771,   772
   773,   774,   775,   776,   777,   778,   779,   780,   781,   782,   783,   784,   785,   786,   787,   788
   789,   790,   791,   792,   793,   794,   795,   796,   797,   798,   799,   800,   801,   802,   803,   804
   805,   806,   807,   808,   809,   810,   811,   812,   813,   816,   819,   821,   823,   950,   951,   952
   953,   954,   955,   956,   957,   958,   959,   960,   961,   962,   963,   964,   965,   966,   967,   968
   969,   970,   971,   972,   973,   974,   975,   976,   977,   978,   979,   980,   981,   982,   983,   984
   985,   986,   987,   988,   989,   990,   991,   992,   993,   994,   995,   996,   997,   998,   999,  1000
** ... 753 like lines cut
*Elset, elset=Set-7
  2547,  2548,  2549,  2550,  2551,  2552,  2553,  2554,  2555,  2556,  2557,  2558,  2559,  2560,  2561,  2562
  2563,  2564,  2565,  2566,  2567,  2568,  2569,  2570,  2571,  2572,  2573,  2574,  2575,  2576,  2577,  2578
  2579,  2580,  2581,  2582,  2583,  2584,  2585,  2586,  2587,  2588,  2589,  2590,  2591,  2592,  2593,  2594
  2595,  2596,  2597,  2598,  2599,  2600,  2601,  2602,  2603,  2604,  2605,  2606,  2607,  2608,  2609,  2610
  2611,  2612,  2613,  2614,  2615,  2616,  2617,  2618,  2619,  2620,  2621,  2622,  2623,  2624,  2625,  2626
  2627,  2628,  2629,  2630,  2631,  2632,  2633,  2634,  2635,  2636,  2637,  2638,  2639,  2640,  2641,  2642
  2643,  2644,  2645,  2646,  2647,  2648,  2649,  2650,  2651,  2652,  2653,  2654,  2655,  2656,  2657,  2658
  2659,  2660,  2661,  2662,  2663,  2664,  2665,  2666,  2667,  2668,  2669,  2670,  2671,  2672,  2673,  2674
  2675,  2676,  2677,  2678,  2679,  2680,  2681,  2682,  2683,  2684,  2685,  2686,  2687,  2688,  2689,  2690
  2691,  2692,  2693,  2694,  2695,  2696,  2697,  2698,  2699,  2700,  2701,  2702,  2703,  2704,  2705,  2706
  2707,  2708,  2709,  2710,  2711,  2712,  2713,  2714,  2715,  2716,  2717,  2718,  2719,  2720,  2721,  2722
  2723,  2724,  2725,  2726,  2727,  2728,  2729,  2730,  2731,  2732,  2733,  2734,  2735,  2736,  2737,  2738
  2739,  2740,  2741,  2742,  2743,  2744,  2745,  2746,  2747,  2748,  2749,  2750,  2751,  2752,  2753,  2754
  2755,  2756,  2757,  2758,  2759,  2760,  2761,  2762,  2763,  2764,  2765,  2766,  2767,  2768,  2769,  2770
  2771,  2772,  2773,  2774,  2775,  2776,  2777,  2778,  2779,  2780,  2781,  2782,  2783,  2784,  2785,  2786
  2787,  2788,  2789,  2790,  2791,  2792,  2793,  2794,  2795,  2796,  2797,  2798,  2799,  2800,  2801,  2802
  2803,  2804,  2805,  2806,  2807,  2808,  2809,  2810,  2811,  2812,  2813,  2814,  2815,  2816,  2817,  2818
  2819,  2820,  2821,  2822,  2823,  2824,  2825,  2826,  2827,  2828,  2829,  2830,  2831,  2832,  2833,  2834
  2835,  2836,  2837,  2838,  2839,  2840,  2841,  2842,  2843,  2844,  2845,  2846,  2847,  2848,  2849,  2850
  2851,  2852,  2853,  2854,  2855,  2856,  2857,  2858,  2859,  2860,  2861,  2862,  2863,  2864,  2865,  2866
** ... 707 like lines cut
*Nset, nset=Set-8
     2,     3,     9,    10,    11,    21,    22,    24,    27,    31,    35,    38,    39,    40,    41,    51
    52,    58,    59,    60,    61,    62,    63,    64,    67,    72,    73,    74,    77,    78,    88,    89
    95,    96,    97,    98,    99,   100,   101,   104,   105,   108,   109,   123,   124,   126,   128,   136
   140,   143,   149,   150,   155,   156,   157,   158,   159,   160,   161,   171,   176,   177,   178,   181
   182,   208,   209,   215,   216,   221,   222,   223,   229,   230,   232,   234,   242,   257,   258,   259
   262,   263,   265,   266,   268,   269,   270,   271,   272,   273,   274,   275,   276,   277,   278,   279
   280,   281,   296,   297,   298,   301,   302,   308,   309,   318,   319,   320,   321,   322,   323,   324
   328,   329,   353,   354,   359,   361,   367,   371,   372,   377,   380,   381,   383,   389,   396,   397
   398,   399,   400,   401,   402,   403,   404,   405,   406,   407,   408,   409,   410,   411,   412,   413
   414,   415,   416,   417,   418,   419,   420,   421,   422,   423,   424,   425,   426,   427,   428,   429
   430,   431,   432,   433,   434,   435,   436,   437,   438,   439,   440,   441,   442,   443,   444,   445
   446,   447,   448,   449,   450,   451,   452,   453,   454,   455,   456,   457,   458,   459,   460,   461
   462,   463,   464,   465,   466,   467,   468,   469,   470,   471,   472,   473,   474,   475,   476,   477
   478,   479,   480,   481,   482,   483,   484,   485,   486,   487,   488,   489,   490,   491,   492,   493
   494,   495,   496,   497,   498,   499,   500,   501,   502,   503,   504,   505,   506,   507,   508,   509
   510,   511,   512,   513,   514,   515,   516,   517,   518,   519,   520,   522,   525,   528,   529,   531
   537,   544,   545,   546,   547,   548,   549,   550,   551,   552,   553,   554,   555,   556,   557,   558
   559,   560,   561,   562,   563,   564,   565,   566,   567,   568,   569,   570,   571,   572,   573,   574
   575,   576,   577,   578,   579,   580,   581,   582,   583,   584,   585,   586,   587,   588,   589,   590
   591,   592,   593,   594,   595,   596,   597,   598,   599,   600,   601,   602,   603,   604,   605,   606
** ... 752 like lines cut
*Elset, elset=Set-8
    47,    48,    49,    50,    51,    52,    53,    54,    55,    56,    57,    58,    59,    60,    61,    62
    63,    64,    65,    66,    67,    68,    69,    70,    71,    72,    73,    74,    75,    76,    77,    78
    79,    80,    81,    82,    83,    84,    85,    86,    87,    88,    89,    90,    91,    92,    93,    94
    95,    96,    97,    98,    99,   100,   101,   102,   103,   104,   105,   106,   107,   108,   109,   110
   111,   112,   113,   114,   115,   116,   117,   118,   119,   120,   121,   122,   123,   124,   125,   126
   127,   128,   129,   130,   131,   132,   133,   134,   135,   136,   137,   138,   139,   140,   141,   142
   143,   144,   145,   146,   147,   148,   149,   150,   151,   152,   153,   154,   155,   156,   157,   158
   159,   160,   161,   162,   163,   164,   165,   166,   167,   168,   169,   170,   171,   172,   173,   174
   175,   176,   177,   178,   179,   180,   181,   182,   183,   184,   185,   186,   187,   188,   189,   190
   191,   192,   193,   194,   195,   196,   197,   198,   199,   200,   201,   202,   203,   204,   205,   206
   207,   208,   209,   210,   211,   212,   213,   214,   215,   216,   217,   218,   219,   220,   221,   222
   223,   224,   225,   226,   227,   228,   229,   230,   231,   232,   233,   234,   235,   236,   237,   238
   239,   240,   241,   242,   243,   244,   245,   246,   247,   248,   249,   250,   251,   252,   253,   254
   255,   256,   257,   258,   259,   260,   261,   262,   263,   264,   265,   266,   267,   268,   269,   270
   271,   272,   273,   274,   275,   276,   277,   278,   279,   280,   281,   282,   283,   284,   285,   286
   287,   288,   289,   290,   291,   292,   293,   294,   295,   296,   297,   298,   299,   300,   301,   302
   303,   304,   305,   306,   307,   308,   309,   310,   311,   312,   313,   314,   315,   316,   317,   318
   319,   320,   321,   322,   323,   324,   325,   326,   327,   328,   329,   330,   331,   332,   333,   334
   335,   336,   337,   338,   339,   340,   341,   342,   343,   344,   345,   346,   347,   348,   349,   350
   351,   352,   353,   354,   355,   356,   357,   358,   359,   360,   361,   362,   363,   364,   365,   366
** ... 705 like lines cut
** Section: Section-2
*Shell Section, elset=Set-2, material=PLA
0.5, 5
** Section: Section-1
*Shell Section, elset=Set-8, composite
1., 3, PLA, 0., P1
1., 3, PLA, 90., P2
** Section: Section-1
*Shell Section, elset=Set-7, composite
1., 3, PLA, 0., P1
1., 3, PLA, 90., P2
*End Part
**  
**
** ASSEMBLY
**
*Assembly, name=Assembly
**  
*Instance, name=Part-3-1, part=Part-3
*End Instance
**  
*Nset, nset=Set-84, instance=Part-3-1
   172,   175,   179,   180,   210,   257,   258,   259,   285,   288,   289,   290,   291,   292,   293,   294
   295,   296,   297,   298,   299,   300,   301,   302,   303,   304,   305,   306,   307,   308,   309,   310
   311,   312,   313,   314,   315,   316,   317,   318,   319,   320,   321,   322,   323,   324,   325,   326
   327,   328,   329,   330,   331,   332,   345,   347,   350,   352,  1078,  1080,  1081,  1344,  1501,  1503
  1761,  1762,  1763,  1764,  1765,  1766,  1767,  1768,  1769,  1770,  1771,  1772,  1773,  1774,  1775,  1776
  1777,  1778,  1779,  1780,  1781,  1782,  1783,  1784,  1785,  1786,  1787,  1788,  1789,  1790,  1791,  1792
  1793,  1794,  1795,  1796,  1797,  1798,  1799,  1800,  1801,  1802,  1803,  1804,  1805,  1806,  1807,  1808
  1809,  1810,  1811,  1812,  1813,  1814,  1815,  1816,  1817,  1818,  1819,  1820,  1821,  1822,  1823,  1824
  1825,  1826,  1827,  1828,  1829,  1830,  1831,  1832,  1833,  1834,  1835,  1836,  1837,  1838,  1839,  1840
  1841,  1842,  1843,  1844,  1845,  1846,  1847,  1848,  1849,  1850,  1851,  1852,  1853,  1854,  1855,  1856
  1857,  1858,  1859,  1860,  1861,  1862,  1863,  1864,  1865,  1866,  1867,  1868,  1869,  1870,  1871,  1872
  1873,  1874,  1875,  1876,  1877,  1878,  1879,  1880,  1881,  1882,  1883,  1884,  1885,  1886,  1887,  1888
  1889,  1890,  1891,  1892,  1893,  1894,  1895,  1896,  1897,  1898,  1899,  1900,  1901,  1902,  1903,  1904
  1905,  1906,  1907,  1908,  1909,  1910,  1911,  1912,  1913,  1914,  1915,  1916,  1917,  1918,  1919,  1920
  1921,  1922,  1923,  1924,  1925,  1926,  1927,  1928,  1929,  1930,  1931,  1932,  1933,  1934,  1935,  1936
  1937,  1938,  1939,  1940,  1941,  1942,  1943,  1944,  1945,  1946,  1947,  1948,  1949,  1950,  1951,  1952
  1953,  1954,  1955,  1956,  1957,  1958,  1959,  1960,  1961,  1962,  1963,  1964,  1965,  1966,  1967,  1968
  1969,  1970,  1971,  1972,  1973,  1974,  1975,  1976,  1977,  1978,  1979,  1980,  1981,  1982,  1983,  1984
  1985,  1986,  1987,  1988,  1989,  1990,  1991,  1992,  1993,  1994,  1995,  1996,  1997,  1998,  1999,  2000
  2001,  2002,  2003,  2004,  2005,  2006,  2007,  2008,  2009,  2010,  2011,  2012,  2013,  2014,  2015,  2016
** ... 241 like lines cut
*Elset, elset=Set-84, instance=Part-3-1
 12439, 12440, 12441, 12442, 12443, 12444, 12445, 12446, 12447, 12448, 12449, 12450, 12451, 12452, 12453, 12454
 12455, 12456, 12457, 12458, 12459, 12460, 12461, 12462, 12463, 12464, 12465, 12466, 12467, 12468, 12469, 12470
 12471, 12472, 12473, 12474, 12475, 12476, 12477, 12478, 12479, 12480, 12481, 12482, 12483, 12484, 12485, 12486
 12487, 12488, 12489, 12490, 12491, 12492, 12493, 12494, 12495, 12496, 12497, 12498, 12499, 12500, 12501, 12502
 12503, 12504, 12505, 12506, 12507, 12508, 12509, 12510, 12511, 12512, 12513, 12514, 12515, 12516, 12517, 12518
 12519, 12520, 12521, 12522, 12523, 12524, 12525, 12526, 12527, 12528, 12529, 12530, 12531, 12532, 12533, 12534
 12535, 12536, 12537, 12538, 12539, 12540, 12541, 12542, 12543, 12544, 12545, 12546, 12547, 12548, 12549, 12550
 12551, 12552, 12553, 12554, 12555, 12556, 12557, 12558, 12559, 12560, 12561, 12562, 12563, 12564, 12565, 12566
 12567, 12568, 12569, 12570, 12571, 12572, 12573, 12574, 12575, 12576, 12577, 12578, 12579, 12580, 12581, 12582
 12583, 12584, 12585, 12586, 12587, 12588, 12589, 12590, 12591, 12592, 12593, 12594, 12595, 12596, 12597, 12598
 12599, 12600, 12601, 12602, 12603, 12604, 12605, 12606, 12607, 12608, 12609, 12610, 12611, 12612, 12613, 12614
 12615, 12616, 12617, 12618, 12619, 12620, 12621, 12622, 12623, 12624, 12625, 12626, 12627, 12628, 12629, 12630
 12631, 12632, 12633, 12634, 12635, 12636, 12637, 12638, 12639, 12640, 12641, 12642, 12643, 12644, 12645, 12646
 12647, 12648, 12649, 12650, 12651, 12652, 12653, 12654, 12655, 12656, 12657, 12658, 12659, 12660, 12661, 12662
 12663, 12664, 12665, 12666, 12667, 12668, 12669, 12670, 12671, 12672, 12673, 12674, 12675, 12676, 12677, 12678
 12679, 12680, 12681, 12682, 12683, 12684, 12685, 12686, 12687, 12688, 12689, 12690, 12691, 12692, 12693, 12694
 12695, 12696, 12697, 12698, 12699, 12700, 12701, 12702, 12703, 12704, 12705, 12706, 12707, 12708, 12709, 12710
 12711, 12712, 12713, 12714, 12715, 12716, 12717, 12718, 12719, 12720, 12721, 12722, 12723, 12724, 12725, 12726
 12727, 12728, 12729, 12730, 12731, 12732, 12733, 12734, 12735, 12736, 12737, 12738, 12739, 12740, 12741, 12742
 12743, 12744, 12745, 12746, 12747, 12748, 12749, 12750, 12751, 12752, 12753, 12754, 12755, 12756, 12757, 12758
** ... 227 like lines cut
*Nset, nset=Set-85, instance=Part-3-1
 180, 288, 300, 347
*Nset, nset=Set-86, instance=Part-3-1
 295, 297, 306, 309
*Nset, nset=Set-87, instance=Part-3-1
 294, 295, 297, 304, 306, 309, 310, 326
*Elset, elset=Set-87, instance=Part-3-1
 12443, 12445, 12450, 12452, 12454, 12456, 14908, 14913
*Nset, nset=Set-88, instance=Part-3-1
  26,  85, 213, 300
*Nset, nset=Set-89, instance=Part-3-1, generate
     1,  24937,      1
*Elset, elset=Set-89, instance=Part-3-1, generate
     1,  23580,      1
*Elset, elset=_Surf-2_E3, internal, instance=Part-3-1
 12443, 12445, 12450, 12452, 12454, 12456, 14908, 14913
*Surface, type=ELEMENT, name=Surf-2
_Surf-2_E3, E3
*Elset, elset=_Surf-3_SPOS, internal, instance=Part-3-1
 12457, 12458, 12459, 12460, 12461, 12462, 12463, 12464, 12465, 12466, 12467, 12468, 12469, 12470, 12471, 12472
 12473, 12474, 12475, 12476, 12477, 12478, 12479, 12480, 12481, 12482, 12483, 12484, 12485, 12486, 12487, 12488
 12489, 12490, 12491, 12492, 12493, 12494, 12495, 12496, 12497, 12498, 12499, 12500, 12501, 12502, 12503, 12504
 12505, 12506, 12507, 12508, 12509, 12510, 12511, 12512, 12513, 12514, 12515, 12516, 12517, 12518, 12519, 12520
 12521, 12522, 12523, 12524, 12525, 12526, 12527, 12528, 12529, 12530, 12531, 12532, 12533, 12534, 12535, 12536
 12537, 12538, 12539, 12540, 12541, 12542, 12543, 12544, 12545, 12546, 12547, 12548, 12549, 12550, 12551, 12552
 12553, 12554, 12555, 12556, 12557, 12558, 12559, 12560, 12561, 12562, 12563, 12564, 12565, 12566, 12567, 12568
 12569, 12570, 12571, 12572, 12573, 12574, 12575, 12576, 12577, 12578, 12579, 12580, 12581, 12582, 12583, 12584
 12585, 12586, 12587, 12588, 12589, 12590, 12591, 12592, 12593, 12594, 12595, 12596, 12597, 12598, 12599, 12600
 12601, 12602, 12603, 12604, 12605, 12606, 12607, 12608, 12609, 12610, 12611, 12612, 12613, 12614, 12615, 12616
 12617, 12618, 12619, 12620, 12621, 12622, 12623, 12624, 12625, 12626, 12627, 12628, 12629, 12630, 12631, 12632
 12633, 12634, 12635, 12636, 12637, 12638, 12639, 12640, 12641, 12642, 12643, 12644, 12645, 12646, 12647, 12648
 12649, 12650, 12651, 12652, 12653, 12654, 12655, 12656, 12657, 12658, 12659, 12660, 12661, 12662, 12663, 12664
 12665, 12666, 12667, 12668, 12669, 12670, 12671, 12672, 12673, 12674, 12675, 12676, 12677, 12678, 12679, 12680
 12681, 12682, 12683, 12684, 12685, 12686, 12687, 12688, 12689, 12690, 12691, 12692, 12693, 12694, 12695, 12696
 12697, 12698, 12699, 12700, 12701, 12702, 12703, 12704, 12705, 12706, 12707, 12708, 12709, 12710, 12711, 12712
 12713, 12714, 12715, 12716, 12717, 12718, 12719, 12720, 12721, 12722, 12723, 12724, 12725, 12726, 12727, 12728
 12729, 12730, 12731, 12732, 12733, 12734, 12735, 12736, 12737, 12738, 12739, 12740, 12741, 12742, 12743, 12744
 12745, 12746, 12747, 12748, 12749, 12750, 12751, 12752, 12753, 12754, 12755, 12756, 12757, 12758, 12759, 12760
 12761, 12762, 12763, 12764, 12765, 12766, 12767, 12768, 12769, 12770, 12771, 12772, 12773, 12774, 12775, 12776
** ... 224 like lines cut
*Surface, type=ELEMENT, name=Surf-3
_Surf-3_SPOS, SPOS
*End Assembly
*Amplitude, name=Amp-1, definition=SMOOTH STEP
             0.,             25.,             0.5,             65.
*Amplitude, name=Amp-2, definition=SMOOTH STEP
             0.,              0.,             0.5,              1.
*Amplitude, name=Amp-3
             0.,             25.,             0.5,             65.
*Amplitude, name=Amp-4
             0.,              0.,            0.25,              1.,             0.5,              0.
*Amplitude, name=Amp-5
             0.,              1.,             0.2,              0.,             0.5,              0.
*Amplitude, name=Amp-6
             0.,              0.,             0.5,              1.
** 
** MATERIALS
** 
*Material, name=PLA
*Density
 1.25e-09,
*Elastic, type=LAMINA
 8.26, 6.608,  0.45,  0.79,  0.79,  0.79
*Expansion, type=ORTHO
 -0.00144675, 0.00017025,         0.
** 
** INTERACTION PROPERTIES
** 
*Surface Interaction, name=IntProp-1
*Friction
0.,
*Surface Behavior, pressure-overclosure=HARD
** 
** PREDEFINED FIELDS
** 
** Name: Predefined Field-7   Type: Temperature
*Initial Conditions, type=TEMPERATURE
Set-89, 25.
** ----------------------------------------------------------------
** 
** STEP: Step-3
** 
*Step, name=Step-3, nlgeom=YES
*Dynamic, Explicit
, 0.5
*Bulk Viscosity
0.06, 1.2
** 
** BOUNDARY CONDITIONS
** 
** Name: BC-11 Type: Displacement/Rotation
*Boundary
Set-88, 3, 3
** 
** PREDEFINED FIELDS
** 
** Name: Predefined Field-7   Type: Temperature
*Temperature, amplitude=Amp-1
Set-89, 1.
** 
** OUTPUT REQUESTS
** 
*Restart, write, number interval=1, time marks=NO
** 
** FIELD OUTPUT: F-Output-1
** 
*Output, field, number interval=100
*Node Output
A, AR, AT, U, UR, UT, V, VR
VT
*Element Output, directions=YES
CTSHR, E, EDCDEN, EDT, EFABRIC, ELEDEN, ELEN, ENER, ER, ERV, LE, MISES, MISESMAX, MISESONLY, NE, PE
PEEQ, PEEQMAX, PEEQT, PEEQVAVG, PEMAG, PEQC, PEVAVG, PRESSONLY, PS, S, SE, SFABRIC, SSAVG, SVAVG, TRIAX, TSHR
VE, VEEQ, VS
** 
** HISTORY OUTPUT: H-Output-1
** 
*Output, history
*Energy Output
ALLAE, ALLCD, ALLCW, ALLDC, ALLDMD, ALLFD, ALLIE, ALLKE, ALLMW, ALLPD, ALLPW, ALLSE, ALLVD, ALLWK, ETOTAL
*End Step
