*Heading
** Job name: Wrapping_pattern Model name: fv_newpattern111
** Generated by: Abaqus/CAE 6.14-4
*Preprint, echo=NO, model=NO, history=NO, contact=NO
**
** PARTS
**
*Part, name=wrapping
*Node
      1,   68.2885056,          25.,           0.
      2,   67.3206482,         27.5,           0.
      3,   60.9317513,         27.5,           0.
      4,   61.9994202,          25.,           0.
      5,  -12.5301104,  -19.8087502,           0.
      6,  -12.9721184,  -20.8756256,           0.
      7,  -5.59235382,  -23.9330769,           0.
      8,  -5.15046215,  -22.8661537,           0.
      9,  -13.4141273,  -21.9424992,           0.
     10,  -18.5643559,  -18.5587502,           0.
     11,  -19.4483719,  -19.4424992,           0.
     12,  -19.8124657,   12.5211439,           0.
     13,   -20.879406,   12.9629917,           0.
     14,  -23.9331245,     5.592237,           0.
     15,  -22.8662491,    5.1502285,           0.
     16,  -21.9463482,   13.4048386,           0.
     17,  -18.5595322,   18.5624676,           0.
     18,  -19.4424992,   19.4483719,           0.
     19,   12.5252047,   19.8107815,           0.
     20,   12.9670963,   20.8777065,           0.
** ... 16856 like lines cut
*Element, type=S4R
 1,    1,  157, 1975,  170
 2,  157,  158, 1976, 1975
 3,  158,    2,  159, 1976
 4,  170, 1975, 1977,  169
 5, 1975, 1976, 1978, 1977
 6, 1976,  159,  160, 1978
 7,  169, 1977, 1979,  168
 8, 1977, 1978, 1980, 1979
 9, 1978,  160,  161, 1980
10,  168, 1979, 1981,  167
11, 1979, 1980, 1982, 1981
12, 1980,  161,  162, 1982
13,  167, 1981, 1983,  166
14, 1981, 1982, 1984, 1983
15, 1982,  162,  163, 1984
16,  166, 1983,  165,    4
17, 1983, 1984,  164,  165
18, 1984,  163,    3,  164
19,   5,   6, 171, 184
20, 184, 171, 172, 183
** ... 15905 like lines cut
*Element, type=S3
369, 2159, 2148, 2128
370, 2154, 2167, 2133
505, 2304, 2788, 2834
506, 2835, 2783, 2794
507, 2916, 2342,  636
508, 2738, 2689, 2216
509, 2629, 2951, 2569
510, 2967, 2642, 2597
511, 2723, 2688, 2319
512, 2680, 2735, 2279
513, 2966, 2974, 2712
514, 2763, 2223, 2733
515, 3002, 2289, 2783
516, 2784, 2793, 2842
517, 2997, 2822, 2235
518, 2867, 2828, 2286
519, 2867, 2826, 2850
520, 2841, 2834, 2305
521, 2898, 2848, 2255
522, 2836, 2856, 2853
** ... 415 like lines cut
*Nset, nset=Set-1
     5,     8,    12,    15,    19,    22,    26,    29,    37,    38,    39,    42,    46,    49,    57,    58
    62,    63,    64,    66,    70,    71,    72,    74,   105,   106,   107,   108,   178,   179,   180,   181
   182,   183,   184,   202,   203,   204,   205,   206,   207,   208,   226,   227,   228,   229,   230,   231
   232,   250,   251,   252,   253,   254,   255,   256,   277,   278,   279,   280,   281,   289,   290,   291
   292,   293,   294,   295,   313,   314,   315,   316,   317,   318,   319,   340,   341,   342,   343,   344
   366,   367,   368,   369,   370,   371,   372,   373,   374,   375,   376,   377,   378,   379,   380,   388
   389,   390,   391,   392,   393,   394,   416,   417,   418,   419,   420,   421,   422,   423,   424,   425
   426,   427,   428,   429,   430,   438,   439,   440,   441,   442,   443,   444,   557,   558,   559,   560
   561,   562,   563,   564,   565,   566,   567,   568,   569,   570,   571,   572,   573,   574,   575,   576
   577,   578,   579,   580,   581,   582,   583,   584,   585,   586,   587,   588,   589,   590,   591,   592
   593,   594,   595,   596,   597,   598,   599,   600,   601,   602,   603,   604,   605,   606,   607,   608
   609,   610,   611,   612,   613,   614,   615,   616,   617,   618,   619,   620,   621,   622,   623,   624
   625,   626,   627,   628,   629,   630,   631,   632,   633,   634,   635,   636,   637,   638,   639,   640
   641,   642,   643,   644,   645,   646,   647,   648,   649,   650,   651,   652,   653,   654,   655,   656
   657,   658,   659,   660,   661,   662,   663,   664,   665,   666,   667,   668,   669,   670,   671,   672
  1953,  1954,  1955,  1956,  1957,  1958,  1959,  1960,  1961,  1962,  1963,  1964,  1965,  1966,  1967,  1968
  1969,  1970,  1971,  1972,  2055,  2056,  2057,  2058,  2059,  2060,  2061,  2062,  2063,  2064,  2065,  2066
  2067,  2068,  2069,  2070,  2071,  2072,  2073,  2074,  2075,  2076,  2077,  2078,  2079,  2080,  2081,  2082
  2083,  2084,  2085,  2086,  2087,  2088,  2089,  2090,  2091,  2092,  2093,  2094,  2095,  2096,  2097,  2098
  2099,  2100,  2101,  2102,  2103,  2104,  2105,  2106,  2107,  2108,  2109,  2110,  2111,  2112,  2113,  2114
** ... 120 like lines cut
*Elset, elset=Set-1
   369,   370,   371,   372,   373,   374,   375,   376,   377,   378,   379,   380,   381,   382,   383,   384
   385,   386,   387,   388,   389,   390,   391,   392,   393,   394,   395,   396,   397,   398,   399,   400
   401,   402,   403,   404,   405,   406,   407,   408,   409,   410,   411,   412,   413,   414,   415,   416
   417,   418,   419,   420,   421,   422,   423,   424,   425,   426,   427,   428,   429,   430,   431,   432
   433,   434,   435,   436,   437,   438,   439,   440,   441,   442,   443,   444,   445,   446,   447,   448
   449,   450,   451,   452,   453,   454,   455,   456,   457,   458,   459,   460,   461,   462,   463,   464
   465,   466,   467,   468,   469,   470,   471,   472,   473,   474,   475,   476,   477,   478,   479,   480
   481,   482,   483,   484,   485,   486,   487,   488,   489,   490,   491,   492,   493,   494,   495,   496
   497,   498,   499,   500,   501,   502,   503,   504,   505,   506,   507,   508,   509,   510,   511,   512
   513,   514,   515,   516,   517,   518,   519,   520,   521,   522,   523,   524,   525,   526,   527,   528
   529,   530,   531,   532,   533,   534,   535,   536,   537,   538,   539,   540,   541,   542,   543,   544
   545,   546,   547,   548,   549,   550,   551,   552,   553,   554,   555,   556,   557,   558,   559,   560
   561,   562,   563,   564,   565,   566,   567,   568,   569,   570,   571,   572,   573,   574,   575,   576
   577,   578,   579,   580,   581,   582,   583,   584,   585,   586,   587,   588,   589,   590,   591,   592
   593,   594,   595,   596,   597,   598,   599,   600,   601,   602,   603,   604,   605,   606,   607,   608
   609,   610,   611,   612,   613,   614,   615,   616,   617,   618,   619,   620,   621,   622,   623,   624
   625,   626,   627,   628,   629,   630,   631,   632,   633,   634,   635,   636,   637,   638,   639,   640
   641,   642,   643,   644,   645,   646,   647,   648,   649,   650,   651,   652,   653,   654,   655,   656
   657,   658,   659,   660,   661,   662,   663,   664,   665,   666,   667,   668,   669,   670,   671,   672
   673,   674,   675,   676,   677,   678,   679,   680,   681,   682,   683,   684,   685,   686,   687,   688
** ... 116 like lines cut
*Nset, nset=Set-10
    1,    2,    3,    4,    5,    6,    7,    8,    9,   10,   11,   12,   13,   14,   15,   16
   17,   18,   19,   20,   21,   22,   23,   24,   25,   26,   27,   28,   29,   30,   31,   32
   33,   34,   35,   36,   37,   38,   39,   40,   41,   42,   43,   44,   45,   46,   47,   48
   49,   50,   51,   52,   53,   54,   55,   56,   57,   58,   59,   60,   61,   62,   63,   64
   65,   66,   67,   68,   69,   70,   71,   72,   73,   74,   75,   76,   77,   78,   79,   80
   81,   82,   83,   84,   85,   86,   87,   88,   89,   90,   91,   92,   93,   94,   95,   96
   97,   98,   99,  100,  101,  102,  103,  104,  157,  158,  159,  160,  161,  162,  163,  164
  165,  166,  167,  168,  169,  170,  171,  172,  173,  174,  175,  176,  177,  178,  179,  180
  181,  182,  183,  184,  185,  186,  187,  188,  189,  190,  191,  192,  193,  194,  195,  196
  197,  198,  199,  200,  201,  202,  203,  204,  205,  206,  207,  208,  209,  210,  211,  212
  213,  214,  215,  216,  217,  218,  219,  220,  221,  222,  223,  224,  225,  226,  227,  228
  229,  230,  231,  232,  233,  234,  235,  236,  237,  238,  239,  240,  241,  242,  243,  244
  245,  246,  247,  248,  249,  250,  251,  252,  253,  254,  255,  256,  257,  258,  259,  260
  261,  262,  263,  264,  265,  266,  267,  268,  269,  270,  271,  272,  273,  274,  275,  276
  277,  278,  279,  280,  281,  282,  283,  284,  285,  286,  287,  288,  289,  290,  291,  292
  293,  294,  295,  296,  297,  298,  299,  300,  301,  302,  303,  304,  305,  306,  307,  308
  309,  310,  311,  312,  313,  314,  315,  316,  317,  318,  319,  320,  321,  322,  323,  324
  325,  326,  327,  328,  329,  330,  331,  332,  333,  334,  335,  336,  337,  338,  339,  340
  341,  342,  343,  344,  345,  346,  347,  348,  349,  350,  351,  352,  353,  354,  355,  356
  357,  358,  359,  360,  361,  362,  363,  364,  365,  366,  367,  368,  369,  370,  371,  372
** ... 17 like lines cut
*Elset, elset=Set-10
     1,     2,     3,     4,     5,     6,     7,     8,     9,    10,    11,    12,    13,    14,    15,    16
    17,    18,    19,    20,    21,    22,    23,    24,    25,    26,    27,    28,    29,    30,    31,    32
    33,    34,    35,    36,    37,    38,    39,    40,    41,    42,    43,    44,    45,    46,    47,    48
    49,    50,    51,    52,    53,    54,    55,    56,    57,    58,    59,    60,    61,    62,    63,    64
    65,    66,    67,    68,    69,    70,    71,    72,    73,    74,    75,    76,    77,    78,    79,    80
    81,    82,    83,    84,    85,    86,    87,    88,    89,    90,    91,    92,    93,    94,    95,    96
    97,    98,    99,   100,   101,   102,   103,   104,   105,   106,   107,   108,   109,   110,   111,   112
   113,   114,   115,   116,   117,   118,   119,   120,   121,   122,   123,   124,   125,   126,   127,   128
   129,   130,   131,   132,   133,   134,   135,   136,   137,   138,   139,   140,   141,   142,   143,   144
   145,   146,   147,   148,   149,   150,   151,   152,   153,   154,   155,   156,   157,   158,   159,   160
   161,   162,   163,   164,   165,   166,   167,   168,   169,   170,   171,   172,   173,   174,   175,   176
   177,   178,   179,   180,   181,   182,   183,   184,   185,   186,   187,   188,   189,   190,   191,   192
   193,   194,   195,   196,   197,   198,   199,   200,   201,   202,   203,   204,   205,   206,   207,   208
   209,   210,   211,   212,   213,   214,   215,   216,   217,   218,   219,   220,   221,   222,   223,   224
   225,   226,   227,   228,   229,   230,   231,   232,   233,   234,   235,   236,   237,   238,   239,   240
   241,   242,   243,   244,   245,   246,   247,   248,   249,   250,   251,   252,   253,   254,   255,   256
   257,   258,   259,   260,   261,   262,   263,   264,   265,   266,   267,   268,   269,   270,   271,   272
   273,   274,   275,   276,   277,   278,   279,   280,   281,   282,   283,   284,   285,   286,   287,   288
   289,   290,   291,   292,   293,   294,   295,   296,   297,   298,   299,   300,   301,   302,   303,   304
   305,   306,   307,   308,   309,   310,   311,   312,   313,   314,   315,   316,   317,   318,   319,   320
** ... 4 like lines cut
** Section: Section-2
*Shell Section, elset=Set-10, material=PLA
0.4, 5
** Section: Section-1-Copy2
*Shell Section, elset=Set-1, composite
0.4, 3, PLA, 0., P1
0.4, 3, PLA, 90., P2
0.4, 3, PLA, 0., P3
0.4, 3, PLA, 90., P4
0.4, 3, PLA, 0., P5
** Region: (CompositeLayup-1-Copy-Copy-Copy-1: Generated From Layup)
*Elset, elset=CompositeLayup-1-Copy-Copy-Copy-1
  1424,  1425,  1426,  1427,  1428,  1429,  1430,  1431,  1432,  1433,  1434,  1435,  1436,  1437,  1438,  1439
  1440,  1441,  1442,  1443,  1444,  1445,  1446,  1447,  1448,  1449,  1450,  1451,  1452,  1453,  1454,  1455
  1456,  1457,  1458,  1459,  1460,  1461,  1462,  1463,  1464,  1465,  1466,  1467,  1468,  1469,  1470,  1471
  1472,  1473,  1474,  1475,  1476,  1477,  1478,  1479,  1480,  1481,  1482,  1483,  1484,  1485,  1486,  1487
  1488,  1489,  1490,  1491,  1492,  1493,  1494,  1495,  1496,  1497,  1498,  1499,  1500,  1501,  1502,  1503
  1504,  1505,  1506,  1507,  1508,  1509,  1510,  1511,  1512,  1513,  1514,  1515,  1516,  1517,  1518,  1519
  1520,  1521,  1522,  1523,  1524,  1525,  1526,  1527,  1528,  1529,  1530,  1531,  1532,  1533,  1534,  1535
  1536,  1537,  1538,  1539,  1540,  1541,  1542,  1543,  1544,  1545,  1546,  1547,  1548,  1549,  1550,  1551
  1552,  1553,  1554,  1555,  1556,  1557,  1558,  1559,  1560,  1561,  1562,  1563,  1564,  1565,  1566,  1567
  1568,  1569,  1570,  1571,  1572,  1573,  1574,  1575,  1576,  1577,  1578,  1579,  1580,  1581,  1582,  1583
  1584,  1585,  1586,  1587,  1588,  1589,  1590,  1591,  1592,  1593,  1594,  1595,  1596,  1597,  1598,  1599
  1600,  1601,  1602,  1603,  1604,  1605,  1606,  1607,  1608,  1609,  1610,  1611,  1612,  1613,  1614,  1615
  1616,  1617,  1618,  1619,  1620,  1621,  1622,  1623,  1624,  1625,  1626,  1627,  1628,  1629,  1630,  1631
  1632,  1633,  1634,  1635,  1636,  1637,  1638,  1639,  1640,  1641,  1642,  1643,  1644,  1645,  1646,  1647
  1648,  1649,  1650,  1651,  1652,  1653,  1654,  1655,  1656,  1657,  1658,  1659,  1660,  1661,  1662,  1663
  1664,  1665,  1666,  1667,  1668,  1669,  1670,  1671,  1672,  1673,  1674,  1675,  1676,  1677,  1678,  1679
  1680,  1681,  1682,  1683,  1684,  1685,  1686,  1687,  1688,  1689,  1690,  1691,  1692,  1693,  1694,  1695
  1696,  1697,  1698,  1699,  1700,  1701,  1702,  1703,  1704,  1705,  1706,  1707,  1708,  1709,  1710,  1711
  1712,  1713,  1714,  1715,  1716,  1717,  1718,  1719,  1720,  1721,  1722,  1723,  1724,  1725,  1726,  1727
  1728,  1729,  1730,  1731,  1732,  1733,  1734,  1735,  1736,  1737,  1738,  1739,  1740,  1741,  1742,  1743
** ... 192 like lines cut
** Section: CompositeLayup-1-Copy-Copy-Copy-1
*Shell Section, elset=CompositeLayup-1-Copy-Copy-Copy-1, composite, layup=CompositeLayup-1-Copy-Copy-Copy
2., 3, PLA, -22.5, Ply-1
2., 3, PLA, 67.5, Ply-2
** Region: (CompositeLayup-1-1: Generated From Layup)
*Elset, elset=CompositeLayup-1-1
  3145,  3146,  3147,  3148,  3149,  3150,  3151,  3152,  3153,  3154,  3155,  3156,  3157,  3158,  3159,  3160
  3161,  3162,  3163,  3164,  3165,  3166,  3167,  3168,  3169,  3170,  3171,  3172,  3173,  3174,  3175,  3176
  3177,  3178,  3179,  3180,  3181,  3182,  3183,  3184,  3185,  3186,  3187,  3188,  3189,  3190,  3191,  3192
  3193,  3194,  3195,  3196,  3197,  3198,  3199,  3200,  3201,  3202,  3203,  3204,  3205,  3206,  3207,  3208
  3209,  3210,  3211,  3212,  3213,  3214,  3215,  3216,  3217,  3218,  3219,  3220,  3221,  3222,  3223,  3224
  3225,  3226,  3227,  3228,  3229,  3230,  3231,  3232,  3233,  3234,  3235,  3236,  3237,  3238,  3239,  3240
  3241,  3242,  3243,  3244,  3245,  3246,  3247,  3248,  3249,  3250,  3251,  3252,  3253,  3254,  3255,  3256
  3257,  3258,  3259,  3260,  3261,  3262,  3263,  3264,  3265,  3266,  3267,  3268,  3269,  3270,  3271,  3272
  3273,  3274,  3275,  3276,  3277,  3278,  3279,  3280,  3281,  3282,  3283,  3284,  3285,  3286,  3287,  3288
  3289,  3290,  3291,  3292,  3293,  3294,  3295,  3296,  3297,  3298,  3299,  3300,  3301,  3302,  3303,  3304
  3305,  3306,  3307,  3308,  3309,  3310,  3311,  3312,  3313,  3314,  3315,  3316,  3317,  3318,  3319,  3320
  3321,  3322,  3323,  3324,  3325,  3326,  3327,  3328,  3329,  3330,  3331,  3332,  3333,  3334,  3335,  3336
  3337,  3338,  3339,  3340,  3341,  3342,  3343,  3344,  3345,  3346,  3347,  3348,  3349,  3350,  3351,  3352
  3353,  3354,  3355,  3356,  3357,  3358,  3359,  3360,  3361,  3362,  3363,  3364,  3365,  3366,  3367,  3368
  3369,  3370,  3371,  3372,  3373,  3374,  3375,  3376,  3377,  3378,  3379,  3380,  3381,  3382,  3383,  3384
  3385,  3386,  3387,  3388,  3389,  3390,  3391,  3392,  3393,  3394,  3395,  3396,  3397,  3398,  3399,  3400
  3401,  3402,  3403,  3404,  3405,  3406,  3407,  3408,  3409,  3410,  3411,  3412,  3413,  3414,  3415,  3416
  3417,  3418,  3419,  3420,  3421,  3422,  3423,  3424,  3425,  3426,  3427,  3428,  3429,  3430,  3431,  3432
  3433,  3434,  3435,  3436,  3437,  3438,  3439,  3440,  3441,  3442,  3443,  3444,  3445,  3446,  3447,  3448
  3449,  3450,  3451,  3452,  3453,  3454,  3455,  3456,  3457,  3458,  3459,  3460,  3461,  3462,  3463,  3464
** ... 198 like lines cut
** Section: CompositeLayup-1-1
*Shell Section, elset=CompositeLayup-1-1, composite, layup=CompositeLayup-1
2., 3, PLA, 23.83, Ply-1
2., 3, PLA, 113.83, Ply-2
** Region: (CompositeLayup-1-Copy-1: Generated From Layup)
*Elset, elset=CompositeLayup-1-Copy-1
  4916,  4917,  4918,  4919,  4920,  4921,  4922,  4923,  4924,  4925,  4926,  4927,  4928,  4929,  4930,  4931
  4932,  4933,  4934,  4935,  4936,  4937,  4938,  4939,  4940,  4941,  4942,  4943,  4944,  4945,  4946,  4947
  4948,  4949,  4950,  4951,  4952,  4953,  4954,  4955,  4956,  4957,  4958,  4959,  4960,  4961,  4962,  4963
  4964,  4965,  4966,  4967,  4968,  4969,  4970,  4971,  4972,  4973,  4974,  4975,  4976,  4977,  4978,  4979
  4980,  4981,  4982,  4983,  4984,  4985,  4986,  4987,  4988,  4989,  4990,  4991,  4992,  4993,  4994,  4995
  4996,  4997,  4998,  4999,  5000,  5001,  5002,  5003,  5004,  5005,  5006,  5007,  5008,  5009,  5010,  5011
  5012,  5013,  5014,  5015,  5016,  5017,  5018,  5019,  5020,  5021,  5022,  5023,  5024,  5025,  5026,  5027
  5028,  5029,  5030,  5031,  5032,  5033,  5034,  5035,  5036,  5037,  5038,  5039,  5040,  5041,  5042,  5043
  5044,  5045,  5046,  5047,  5048,  5049,  5050,  5051,  5052,  5053,  5054,  5055,  5056,  5057,  5058,  5059
  5060,  5061,  5062,  5063,  5064,  5065,  5066,  5067,  5068,  5069,  5070,  5071,  5072,  5073,  5074,  5075
  5076,  5077,  5078,  5079,  5080,  5081,  5082,  5083,  5084,  5085,  5086,  5087,  5088,  5089,  5090,  5091
  5092,  5093,  5094,  5095,  5096,  5097,  5098,  5099,  5100,  5101,  5102,  5103,  5104,  5105,  5106,  5107
  5108,  5109,  5110,  5111,  5112,  5113,  5114,  5115,  5116,  5117,  5118,  5119,  5120,  5121,  5122,  5123
  5124,  5125,  5126,  5127,  5128,  5129,  5130,  5131,  5132,  5133,  5134,  5135,  5136,  5137,  5138,  5139
  5140,  5141,  5142,  5143,  5144,  5145,  5146,  5147,  5148,  5149,  5150,  5151,  5152,  5153,  5154,  5155
  5156,  5157,  5158,  5159,  5160,  5161,  5162,  5163,  5164,  5165,  5166,  5167,  5168,  5169,  5170,  5171
  5172,  5173,  5174,  5175,  5176,  5177,  5178,  5179,  5180,  5181,  5182,  5183,  5184,  5185,  5186,  5187
  5188,  5189,  5190,  5191,  5192,  5193,  5194,  5195,  5196,  5197,  5198,  5199,  5200,  5201,  5202,  5203
  5204,  5205,  5206,  5207,  5208,  5209,  5210,  5211,  5212,  5213,  5214,  5215,  5216,  5217,  5218,  5219
  5220,  5221,  5222,  5223,  5224,  5225,  5226,  5227,  5228,  5229,  5230,  5231,  5232,  5233,  5234,  5235
** ... 199 like lines cut
** Section: CompositeLayup-1-Copy-1
*Shell Section, elset=CompositeLayup-1-Copy-1, composite, layup=CompositeLayup-1-Copy
2., 3, PLA, 113.83, Ply-1
2., 3, PLA, 23.83, Ply-2
** Region: (CompositeLayup-1-Copy-Copy-1: Generated From Layup)
*Elset, elset=CompositeLayup-1-Copy-Copy-1, generate
  6655,  10109,      1
** Section: CompositeLayup-1-Copy-Copy-1
*Shell Section, elset=CompositeLayup-1-Copy-Copy-1, composite, layup=CompositeLayup-1-Copy-Copy
2., 3, PLA, 67.5, Ply-1
2., 3, PLA, -22.5, Ply-2
*End Part
**  
**
** ASSEMBLY
**
*Assembly, name=Assembly
**  
*Instance, name=wrapping-1, part=wrapping
*End Instance
**  
*Nset, nset=Set-117, instance=wrapping-1, generate
     1,  16876,      1
*Elset, elset=Set-117, instance=wrapping-1, generate
     1,  16360,      1
*Nset, nset=Set-118, instance=wrapping-1
     5,     8,    12,    15,    19,    22,    26,    29,    37,    38,    39,    42,    46,    49,    57,    58
    62,    63,    64,    66,    70,    71,    72,    74,   105,   106,   107,   108,   178,   179,   180,   181
   182,   183,   184,   202,   203,   204,   205,   206,   207,   208,   226,   227,   228,   229,   230,   231
   232,   250,   251,   252,   253,   254,   255,   256,   277,   278,   279,   280,   281,   289,   290,   291
   292,   293,   294,   295,   313,   314,   315,   316,   317,   318,   319,   340,   341,   342,   343,   344
   366,   367,   368,   369,   370,   371,   372,   373,   374,   375,   376,   377,   378,   379,   380,   388
   389,   390,   391,   392,   393,   394,   416,   417,   418,   419,   420,   421,   422,   423,   424,   425
   426,   427,   428,   429,   430,   438,   439,   440,   441,   442,   443,   444,   557,   558,   559,   560
   561,   562,   563,   564,   565,   566,   567,   568,   569,   570,   571,   572,   573,   574,   575,   576
   577,   578,   579,   580,   581,   582,   583,   584,   585,   586,   587,   588,   589,   590,   591,   592
   593,   594,   595,   596,   597,   598,   599,   600,   601,   602,   603,   604,   605,   606,   607,   608
   609,   610,   611,   612,   613,   614,   615,   616,   617,   618,   619,   620,   621,   622,   623,   624
   625,   626,   627,   628,   629,   630,   631,   632,   633,   634,   635,   636,   637,   638,   639,   640
   641,   642,   643,   644,   645,   646,   647,   648,   649,   650,   651,   652,   653,   654,   655,   656
   657,   658,   659,   660,   661,   662,   663,   664,   665,   666,   667,   668,   669,   670,   671,   672
  1953,  1954,  1955,  1956,  1957,  1958,  1959,  1960,  1961,  1962,  1963,  1964,  1965,  1966,  1967,  1968
  1969,  1970,  1971,  1972,  2055,  2056,  2057,  2058,  2059,  2060,  2061,  2062,  2063,  2064,  2065,  2066
  2067,  2068,  2069,  2070,  2071,  2072,  2073,  2074,  2075,  2076,  2077,  2078,  2079,  2080,  2081,  2082
  2083,  2084,  2085,  2086,  2087,  2088,  2089,  2090,  2091,  2092,  2093,  2094,  2095,  2096,  2097,  2098
  2099,  2100,  2101,  2102,  2103,  2104,  2105,  2106,  2107,  2108,  2109,  2110,  2111,  2112,  2113,  2114
** ... 120 like lines cut
*Elset, elset=Set-118, instance=wrapping-1
   369,   370,   371,   372,   373,   374,   375,   376,   377,   378,   379,   380,   381,   382,   383,   384
   385,   386,   387,   388,   389,   390,   391,   392,   393,   394,   395,   396,   397,   398,   399,   400
   401,   402,   403,   404,   405,   406,   407,   408,   409,   410,   411,   412,   413,   414,   415,   416
   417,   418,   419,   420,   421,   422,   423,   424,   425,   426,   427,   428,   429,   430,   431,   432
   433,   434,   435,   436,   437,   438,   439,   440,   441,   442,   443,   444,   445,   446,   447,   448
   449,   450,   451,   452,   453,   454,   455,   456,   457,   458,   459,   460,   461,   462,   463,   464
   465,   466,   467,   468,   469,   470,   471,   472,   473,   474,   475,   476,   477,   478,   479,   480
   481,   482,   483,   484,   485,   486,   487,   488,   489,   490,   491,   492,   493,   494,   495,   496
   497,   498,   499,   500,   501,   502,   503,   504,   505,   506,   507,   508,   509,   510,   511,   512
   513,   514,   515,   516,   517,   518,   519,   520,   521,   522,   523,   524,   525,   526,   527,   528
   529,   530,   531,   532,   533,   534,   535,   536,   537,   538,   539,   540,   541,   542,   543,   544
   545,   546,   547,   548,   549,   550,   551,   552,   553,   554,   555,   556,   557,   558,   559,   560
   561,   562,   563,   564,   565,   566,   567,   568,   569,   570,   571,   572,   573,   574,   575,   576
   577,   578,   579,   580,   581,   582,   583,   584,   585,   586,   587,   588,   589,   590,   591,   592
   593,   594,   595,   596,   597,   598,   599,   600,   601,   602,   603,   604,   605,   606,   607,   608
   609,   610,   611,   612,   613,   614,   615,   616,   617,   618,   619,   620,   621,   622,   623,   624
   625,   626,   627,   628,   629,   630,   631,   632,   633,   634,   635,   636,   637,   638,   639,   640
   641,   642,   643,   644,   645,   646,   647,   648,   649,   650,   651,   652,   653,   654,   655,   656
   657,   658,   659,   660,   661,   662,   663,   664,   665,   666,   667,   668,   669,   670,   671,   672
   673,   674,   675,   676,   677,   678,   679,   680,   681,   682,   683,   684,   685,   686,   687,   688
** ... 116 like lines cut
*End Assembly
*Amplitude, name=Amp-1, definition=SMOOTH STEP
             0.,             25.,              1.,             85.
*Amplitude, name=Amp-2, definition=SMOOTH STEP
             0.,              0.,             0.5,              1.
*Amplitude, name=Amp-3
             0.,             25.,             0.5,             65.
*Amplitude, name=Amp-4
             0.,              0.,            0.25,              1.,             0.5,              0.
*Amplitude, name=Amp-5
             0.,              1.,             0.2,              0.,             0.5,              0.
*Amplitude, name=Amp-6
             0.,              0.,             0.5,              1.
** 
** MATERIALS
** 
*Material, name=PLA
*Density
 1.25e-09,
*Elastic, type=LAMINA
 4.87,  3.9, 0.45, 0.67, 0.67, 0.67
*Expansion, type=ORTHO
 0.0004995, -0.00242317,          0.
** 
** INTERACTION PROPERTIES
** 
*Surface Interaction, name=IntProp-1
*Friction
0.,
*Surface Behavior, pressure-overclosure=HARD
** 
** BOUNDARY CONDITIONS
** 
** Name: BC-14 Type: Symmetry/Antisymmetry/Encastre
*Boundary
Set-118, ENCASTRE
** 
** PREDEFINED FIELDS
** 
** Name: Predefined Field-7   Type: Temperature
*Initial Conditions, type=TEMPERATURE
Set-117, 25.
** 
** INTERACTIONS
** 
** Interaction: Int-1
*Contact, op=NEW
*Contact Inclusions, ALL EXTERIOR
*Contact Property Assignment
 ,  , IntProp-1
** ----------------------------------------------------------------
** 
** STEP: Step-3
** 
*Step, name=Step-3, nlgeom=YES
*Dynamic, Explicit
, 1.
*Bulk Viscosity
0.06, 1.2
** 
** PREDEFINED FIELDS
** 
** Name: Predefined Field-7   Type: Temperature
*Temperature, amplitude=Amp-1
Set-117, 1.
** 
** OUTPUT REQUESTS
** 
*Restart, write, number interval=1, time marks=NO
** 
** FIELD OUTPUT: F-Output-1
** 
*Output, field, number interval=100
*Node Output
A, AR, AT, U, UR, UT, V, VR
VT
*Element Output, directions=YES
CTSHR, E, EDCDEN, EDT, EFABRIC, ELEDEN, ELEN, ENER, ER, ERV, LE, MISES, MISESMAX, MISESONLY, NE, PE
PEEQ, PEEQMAX, PEEQT, PEEQVAVG, PEMAG, PEQC, PEVAVG, PRESSONLY, PS, S, SE, SFABRIC, SSAVG, SVAVG, TRIAX, TSHR
VE, VEEQ, VS
** 
** HISTORY OUTPUT: H-Output-1
** 
*Output, history
*Energy Output
ALLAE, ALLCD, ALLCW, ALLDC, ALLDMD, ALLFD, ALLIE, ALLKE, ALLMW, ALLPD, ALLPW, ALLSE, ALLVD, ALLWK, ETOTAL
*End Step
